@<TRIPOS>MOLECULE
*****
 123 128 0 0 0
SMALL
GASTEIGER

@<TRIPOS>ATOM
     1 C         4.960494   2.273206   0.487637 C.3        1 UNL1     0.0009
     2 C         6.333469   3.161692   -0.385614 C.2        1 UNL1     -0.0787
     3 C         7.640202   3.150788   -1.008814 C.2        1 UNL1     -0.0649
     4 C         8.40958   4.412435   -1.835047 C.2        1 UNL1     -0.0542
     5 C         9.424612   4.741055   -2.76714 C.2        1 UNL1     0.0115
     6 C         10.639988   4.176194   -3.552708 C.3        1 UNL1     -0.0348
     7 C         9.385803   6.176907   -3.483947 C.2        1 UNL1     0.2441
     8 O         10.106863   7.107026   -3.150066 O.2        1 UNL1     -0.2702
     9 N         8.657809   6.215676   -4.685892 N.am        1 UNL1     -0.2772
     10 C         7.332106   6.486423   -4.435836 C.2        1 UNL1     0.1049
     11 C         6.582375   5.455198   -4.091307 C.2        1 UNL1     0.0801
     12 C         5.827473   8.046674   -3.187223 C.ar        1 UNL1     0.0753
     13 C         5.174979   6.881007   -2.673335 C.ar        1 UNL1     0.0305
     14 C         5.448321   5.550761   -3.212577 C.2        1 UNL1     0.0924
     15 N         6.847491   4.138583   -4.143922 N.pl3        1 UNL1     -0.3170
     16 C         5.636845   3.433167   -3.816848 C.3        1 UNL1     0.1275
     17 N         4.872286   4.385666   -2.930328 N.2        1 UNL1     -0.2557
     18 C         4.825299   3.307497   -5.102655 C.3        1 UNL1     0.0016
     19 C         5.684481   2.625378   -6.155323 C.3        1 UNL1     0.0026
     20 N         6.083075   1.316157   -5.657235 N.3        1 UNL1     -0.3018
     21 C         6.816993   1.33006   -4.390136 C.3        1 UNL1     0.0026
     22 C         5.933677   2.015458   -3.346164 C.3        1 UNL1     0.0016
     23 C         6.647153   0.468234   -6.68849 C.3        1 UNL1     0.0012
     24 C         5.557392   0.025446   -7.677487 C.3        1 UNL1     -0.0339
     25 C         5.820991   -1.394048   -8.206268 C.3        1 UNL1     -0.0615
     26 C         4.188922   0.134788   -7.027784 C.3        1 UNL1     -0.0615
     27 C         5.474414   9.322079   -2.752701 C.ar        1 UNL1     0.1347
     28 C         4.460936   9.558977   -1.841223 C.ar        1 UNL1     0.0342
     29 C         3.86584   8.393888   -1.312459 C.ar        1 UNL1     0.1435
     30 C         4.233935   7.108375   -1.711434 C.ar        1 UNL1     0.0774
     31 O         2.790672   8.459524   -0.497159 O.3        1 UNL1     -0.4436
     32 C         2.205979   7.150014   -0.561885 C.3        1 UNL1     0.3143
     33 C         3.33411   6.233163   -0.989571 C.2        1 UNL1     0.2504
     34 C         3.860248   10.898946   -1.519108 C.3        1 UNL1     -0.0327
     35 O         1.848702   6.7765   0.774563 O.2        1 UNL1     -0.4528
     36 C         -1.161232   4.487317   0.445883 C.3        1 UNL1     0.0854
     37 C         -1.303853   3.138333   -0.358743 C.3        1 UNL1     0.0236
     38 C         -1.796381   1.882747   0.508819 C.3        1 UNL1     0.1131
     39 C         -1.063463   1.52986   1.865495 C.3        1 UNL1     0.0200
     40 C         0.601548   1.564695   1.960175 C.3        1 UNL1     0.0661
     41 C         1.67413   0.817232   0.879214 C.3        1 UNL1     0.0091
     42 C         3.352814   1.315871   0.332603 C.3        1 UNL1     0.0661
     43 C         6.830958   7.858183   -4.26414 C.2        1 UNL1     0.2131
     44 O         7.159345   8.737735   -5.039567 O.2        1 UNL1     -0.2851
     45 O         6.189796   10.400535   -3.269032 O.3        1 UNL1     -0.5056
     46 O         3.470501   5.051159   -0.765697 O.2        1 UNL1     -0.2836
     47 C         5.350872   1.99617   1.964403 C.3        1 UNL1     -0.0566
     48 O         3.942378   -0.02974   0.534748 O.3        1 UNL1     -0.3909
     49 C         0.910591   0.406079   -0.359921 C.3        1 UNL1     -0.0577
     50 O         1.058644   2.865111   2.272753 O.3        1 UNL1     -0.3910
     51 O         -1.311514   4.389424   1.844191 O.3        1 UNL1     -0.3753
     52 C         -0.210364   3.004333   -1.468371 C.3        1 UNL1     -0.0564
     53 O         -2.257443   0.721793   -0.323007 O.3        1 UNL1     -0.4608
     54 C         -2.051757   -0.600211   -0.02648 C.2        1 UNL1     0.3042
     55 O         -1.221054   -1.357406   -0.526907 O.2        1 UNL1     -0.2512
     56 C         -2.930426   -1.112327   1.079139 C.3        1 UNL1     0.0332
     57 C         -1.891858   2.210468   3.052386 C.3        1 UNL1     -0.0567
     58 C         1.148083   7.198544   -1.688842 C.3        1 UNL1     0.0210
     59 C         -2.52592   4.936126   2.356247 C.3        1 UNL1     0.0372
     60 C         0.102295   5.234861   0.20126 C.2        1 UNL1     -0.0208
     61 C         0.935504   5.827781   1.057386 C.2        1 UNL1     0.0882
     62 H         4.382373   3.205132   0.486317 H        1 UNL1     0.0365
     63 H         5.955943   4.186224   -0.368997 H        1 UNL1     0.0576
     64 H         8.20285   2.224167   -1.142635 H        1 UNL1     0.0615
     65 H         7.818805   5.294258   -1.572643 H        1 UNL1     0.0622
     66 H         -1.968508   5.125588   0.059928 H        1 UNL1     0.0645
     67 H         -2.175863   3.307941   -1.014023 H        1 UNL1     0.0362
     68 H         -2.794916   2.241681   0.801421 H        1 UNL1     0.0741
     69 H         -1.294647   0.506639   2.130033 H        1 UNL1     0.0359
     70 H         0.751653   0.987221   2.892405 H        1 UNL1     0.0600
     71 H         1.809104   -0.159011   1.38487 H        1 UNL1     0.0348
     72 H         3.164094   1.861512   1.268539 H        1 UNL1     0.0602
     73 H         0.233742   5.365956   -0.844103 H        1 UNL1     0.0628
     74 H         0.904086   5.696494   2.13952 H        1 UNL1     0.1022
     75 H         10.745702   3.078754   -3.375267 H        1 UNL1     0.0279
     76 H         10.585755   4.233945   -4.637508 H        1 UNL1     0.0279
     77 H         11.60233   4.550711   -3.174111 H        1 UNL1     0.0279
     78 H         8.704018   5.307491   -5.143214 H        1 UNL1     0.1553
     79 H         7.573881   3.738854   -4.709171 H        1 UNL1     0.1484
     80 H         3.914182   2.733216   -4.895692 H        1 UNL1     0.0317
     81 H         4.50155   4.291378   -5.458769 H        1 UNL1     0.0317
     82 H         6.562777   3.232443   -6.419863 H        1 UNL1     0.0428
     83 H         5.087202   2.547552   -7.064307 H        1 UNL1     0.0428
     84 H         7.034451   0.331601   -3.998214 H        1 UNL1     0.0428
     85 H         7.806237   1.796477   -4.495817 H        1 UNL1     0.0428
     86 H         6.442582   1.889396   -2.408555 H        1 UNL1     0.0317
     87 H         5.005438   1.447309   -3.209508 H        1 UNL1     0.0317
     88 H         7.399918   1.050689   -7.235651 H        1 UNL1     0.0429
     89 H         7.163544   -0.397659   -6.254504 H        1 UNL1     0.0429
     90 H         5.541398   0.71746   -8.527825 H        1 UNL1     0.0308
     91 H         6.108731   -2.072634   -7.397671 H        1 UNL1     0.0233
     92 H         4.935164   -1.789876   -8.708504 H        1 UNL1     0.0233
     93 H         6.629686   -1.420433   -8.94664 H        1 UNL1     0.0233
     94 H         3.47353   -0.515966   -7.542147 H        1 UNL1     0.0233
     95 H         4.2446   -0.184533   -5.983324 H        1 UNL1     0.0233
     96 H         3.810938   1.160364   -7.063685 H        1 UNL1     0.0233
     97 H         2.791772   10.923339   -1.711449 H        1 UNL1     0.0280
     98 H         3.981119   11.162909   -0.46035 H        1 UNL1     0.0280
     99 H         4.340211   11.676397   -2.135794 H        1 UNL1     0.0280
     100 H         7.125112   10.302499   -3.234458 H        1 UNL1     0.2922
     101 H         4.452937   1.810937   2.553518 H        1 UNL1     0.0236
     102 H         5.970206   2.780419   2.39841 H        1 UNL1     0.0236
     103 H         5.949014   1.075576   2.068931 H        1 UNL1     0.0236
     104 H         3.213325   -0.640481   0.759349 H        1 UNL1     0.2098
     105 H         0.667056   1.226539   -1.030256 H        1 UNL1     0.0234
     106 H         1.356659   -0.417478   -0.917328 H        1 UNL1     0.0234
     107 H         0.0   -0.0   0.0 H        1 UNL1     0.0234
     108 H         2.031578   2.858722   2.188329 H        1 UNL1     0.2098
     109 H         -0.270552   3.811825   -2.211369 H        1 UNL1     0.0234
     110 H         0.807003   2.951776   -1.065946 H        1 UNL1     0.0234
     111 H         -0.32109   2.07019   -2.034995 H        1 UNL1     0.0234
     112 H         -3.331371   -2.094565   0.81119 H        1 UNL1     0.0342
     113 H         -2.407309   -1.150934   2.033446 H        1 UNL1     0.0342
     114 H         -3.777733   -0.421989   1.191693 H        1 UNL1     0.0342
     115 H         -1.569715   1.844957   4.037178 H        1 UNL1     0.0234
     116 H         -1.828586   3.300303   3.069841 H        1 UNL1     0.0234
     117 H         -2.9595   1.931147   3.060212 H        1 UNL1     0.0234
     118 H         0.118823   7.135608   -1.294294 H        1 UNL1     0.0309
     119 H         1.23524   8.087247   -2.32194 H        1 UNL1     0.0309
     120 H         1.212959   6.337984   -2.363625 H        1 UNL1     0.0309
     121 H         -2.346389   5.226044   3.391174 H        1 UNL1     0.0524
     122 H         -2.841752   5.839555   1.808431 H        1 UNL1     0.0524
     123 H         -3.321007   4.197582   2.306409 H        1 UNL1     0.0524
@<TRIPOS>BOND
     1     1     2    1
     2     1    42    1
     3     2     3    2
     4     3     4    1
     5     4     5    2
     6     5     7    1
     7     6    75    1
     8     6    76    1
     9     6    77    1
    10     7     9   am
    11     9    10    1
    12    10    11    2
    13    10    43    1
    14    11    14    1
    15    11    15    1
    16    12    13   ar
    17    12    27   ar
    18    12    43    1
    19    13    14    1
    20    13    30   ar
    21    14    17    2
    22    15    16    1
    23    16    17    1
    24    16    18    1
    25    16    22    1
    26    18    19    1
    27    19    20    1
    28    20    21    1
    29    21    22    1
    30    23    24    1
    31    23    88    1
    32    23    89    1
    33    24    25    1
    34    24    26    1
    35    24    90    1
    36    25    91    1
    37    25    92    1
    38    25    93    1
    39    26    94    1
    40    26    95    1
    41    26    96    1
    42    27    28   ar
    43    28    29   ar
    44    29    30   ar
    45    29    31    1
    46    30    33    1
    47    31    32    1
    48    32    33    1
    49    32    35    1
    50    34    97    1
    51    34    98    1
    52    34    99    1
    53    35    61    1
    54    36    37    1
    55    36    60    1
    56    37    38    1
    57    38    39    1
    58    39    40    1
    59    40    41    1
    60    41    42    1
    61    45   100    1
    62    47   101    1
    63    47   102    1
    64    47   103    1
    65    48   104    1
    66    49   105    1
    67    49   106    1
    68    49   107    1
    69    50   108    1
    70    51    59    1
    71    52   109    1
    72    52   110    1
    73    52   111    1
    74    53    54    1
    75    54    55    2
    76    54    56    1
    77    56   112    1
    78    56   113    1
    79    56   114    1
    80    57   115    1
    81    57   116    1
    82    57   117    1
    83    58   118    1
    84    58   119    1
    85    58   120    1
    86    59   121    1
    87    59   122    1
    88    59   123    1
    89    60    61    2
    90     1    47    1
    91     1    62    1
    92     2    63    1
    93     3    64    1
    94     4    65    1
    95     5     6    1
    96     7     8    2
    97     9    78    1
    98    15    79    1
    99    18    80    1
   100    18    81    1
   101    19    82    1
   102    19    83    1
   103    20    23    1
   104    21    84    1
   105    21    85    1
   106    22    86    1
   107    22    87    1
   108    27    45    1
   109    28    34    1
   110    32    58    1
   111    33    46    2
   112    36    51    1
   113    36    66    1
   114    37    52    1
   115    37    67    1
   116    38    53    1
   117    38    68    1
   118    42    48    1
   119    42    72    1
   120    43    44    2
   121    60    73    1
   122    61    74    1
   123    39    69    1
   124    39    57    1
   125    40    70    1
   126    40    50    1
   127    41    71    1
   128    41    49    1
