@<TRIPOS>MOLECULE
*****
 123 128 0 0 0
SMALL
GASTEIGER

@<TRIPOS>ATOM
     1 C         3.750946   1.323616   -3.766988 C.3        1 UNL1     0.0009
     2 C         5.266374   0.77356   -4.682386 C.2        1 UNL1     -0.0787
     3 C         6.700888   0.811425   -4.874171 C.2        1 UNL1     -0.0649
     4 C         7.633146   -0.117021   -5.939648 C.2        1 UNL1     -0.0542
     5 C         8.93446   -0.597706   -6.22705 C.2        1 UNL1     0.0115
     6 C         10.434737   -0.467871   -5.845428 C.3        1 UNL1     -0.0348
     7 C         9.09926   -1.845186   -7.223857 C.2        1 UNL1     0.2441
     8 O         9.444708   -1.723194   -8.391037 O.2        1 UNL1     -0.2702
     9 N         9.07462   -3.104751   -6.600126 N.am        1 UNL1     -0.2772
     10 C         7.781974   -3.565395   -6.499149 C.2        1 UNL1     0.1049
     11 C         7.082549   -3.116298   -5.472826 C.2        1 UNL1     0.0801
     12 C         5.688787   -3.907368   -7.825405 C.ar        1 UNL1     0.0753
     13 C         5.00281   -3.223127   -6.771908 C.ar        1 UNL1     0.0305
     14 C         5.658142   -2.922271   -5.501051 C.2        1 UNL1     0.0924
     15 N         7.484827   -2.440792   -4.382692 N.pl3        1 UNL1     -0.3170
     16 C         6.36228   -2.341721   -3.488083 C.3        1 UNL1     0.1275
     17 N         5.154013   -2.390498   -4.391097 N.2        1 UNL1     -0.2557
     18 C         6.326698   -3.624819   -2.663404 C.3        1 UNL1     0.0016
     19 C         7.669038   -3.794616   -1.969946 C.3        1 UNL1     0.0026
     20 N         7.908254   -2.634044   -1.123259 N.3        1 UNL1     -0.3018
     21 C         7.899298   -1.345075   -1.818132 C.3        1 UNL1     0.0026
     22 C         6.540268   -1.193361   -2.503635 C.3        1 UNL1     0.0016
     23 C         9.005565   -2.828591   -0.196597 C.3        1 UNL1     0.0012
     24 C         8.618159   -3.842012   0.89182 C.3        1 UNL1     -0.0339
     25 C         9.269955   -3.495421   2.240558 C.3        1 UNL1     -0.0615
     26 C         7.106297   -3.929397   1.00765 C.3        1 UNL1     -0.0615
     27 C         5.023912   -4.29751   -8.985512 C.ar        1 UNL1     0.1347
     28 C         3.67047   -4.094727   -9.188305 C.ar        1 UNL1     0.0342
     29 C         3.026159   -3.375949   -8.159041 C.ar        1 UNL1     0.1435
     30 C         3.687207   -2.947008   -7.007414 C.ar        1 UNL1     0.0774
     31 O         1.687476   -3.194477   -8.157592 O.3        1 UNL1     -0.4436
     32 C         1.366529   -2.873209   -6.795736 C.3        1 UNL1     0.3143
     33 C         2.651948   -2.332584   -6.202748 C.2        1 UNL1     0.2504
     34 C         2.842497   -4.703051   -10.285804 C.3        1 UNL1     -0.0327
     35 O         0.431014   -1.788168   -6.823143 O.2        1 UNL1     -0.4528
     36 C         -1.725844   -2.195285   -3.726322 C.3        1 UNL1     0.0854
     37 C         -1.291667   -2.262404   -2.211558 C.3        1 UNL1     0.0236
     38 C         -2.008038   -1.192917   -1.25513 C.3        1 UNL1     0.1131
     39 C         -2.02146   0.336479   -1.658909 C.3        1 UNL1     0.0200
     40 C         -0.645606   1.063948   -2.259121 C.3        1 UNL1     0.0661
     41 C         0.90126   0.987836   -1.567007 C.3        1 UNL1     0.0091
     42 C         2.558659   0.999309   -2.353327 C.3        1 UNL1     0.0661
     43 C         7.11131   -4.267256   -7.603664 C.2        1 UNL1     0.2131
     44 O         7.683118   -5.155545   -8.209234 O.2        1 UNL1     -0.2851
     45 O         5.77487   -4.917976   -9.981767 O.3        1 UNL1     -0.5056
     46 O         2.789787   -1.552876   -5.286827 O.2        1 UNL1     -0.2836
     47 C         3.37499   2.775066   -4.169395 C.3        1 UNL1     -0.0566
     48 O         3.114364   2.019773   -1.431936 O.3        1 UNL1     -0.3909
     49 C         0.915602   -0.106734   -0.523356 C.3        1 UNL1     -0.0577
     50 O         -0.557529   0.891362   -3.659185 O.3        1 UNL1     -0.3910
     51 O         -2.546089   -1.106056   -4.084387 O.3        1 UNL1     -0.3753
     52 C         0.218298   -2.637236   -2.055168 C.3        1 UNL1     -0.0564
     53 O         -1.8544   -1.496632   0.20654 O.3        1 UNL1     -0.4608
     54 C         -1.677858   -0.566794   1.197581 C.2        1 UNL1     0.3042
     55 O         -1.02076   0.471768   1.138843 O.2        1 UNL1     -0.2512
     56 C         -2.440261   -0.875501   2.454623 C.3        1 UNL1     0.0332
     57 C         -3.404665   0.625337   -2.408228 C.3        1 UNL1     -0.0567
     58 C         1.020303   -4.21061   -6.100743 C.3        1 UNL1     0.0210
     59 C         -3.906082   -1.443065   -4.354032 C.3        1 UNL1     0.0372
     60 C         -0.604139   -2.22754   -4.704022 C.2        1 UNL1     -0.0208
     61 C         -0.386856   -1.491725   -5.794943 C.2        1 UNL1     0.0882
     62 H         3.150846   0.658173   -4.399266 H        1 UNL1     0.0365
     63 H         4.818774   0.159918   -5.466967 H        1 UNL1     0.0576
     64 H         7.355015   1.361476   -4.193973 H        1 UNL1     0.0615
     65 H         6.895366   -0.556058   -6.616708 H        1 UNL1     0.0622
     66 H         -2.296026   -3.120342   -3.891272 H        1 UNL1     0.0645
     67 H         -1.729157   -3.20881   -1.84896 H        1 UNL1     0.0362
     68 H         -3.051539   -1.529431   -1.352003 H        1 UNL1     0.0741
     69 H         -2.237074   0.927005   -0.778457 H        1 UNL1     0.0359
     70 H         -0.920081   2.128194   -2.12834 H        1 UNL1     0.0600
     71 H         0.873108   1.894072   -0.930689 H        1 UNL1     0.0348
     72 H         1.865123   1.409549   -3.101677 H        1 UNL1     0.0602
     73 H         0.018905   -3.061022   -4.493375 H        1 UNL1     0.0628
     74 H         -0.942601   -0.588934   -6.050589 H        1 UNL1     0.1022
     75 H         10.734112   0.606638   -5.792135 H        1 UNL1     0.0279
     76 H         10.719481   -0.83936   -4.863601 H        1 UNL1     0.0279
     77 H         11.107336   -0.841599   -6.631329 H        1 UNL1     0.0279
     78 H         9.446459   -3.026169   -5.655861 H        1 UNL1     0.1553
     79 H         8.436601   -2.409986   -4.066291 H        1 UNL1     0.1484
     80 H         5.506468   -3.561082   -1.938196 H        1 UNL1     0.0317
     81 H         6.117034   -4.49234   -3.298304 H        1 UNL1     0.0317
     82 H         8.486358   -3.932206   -2.693112 H        1 UNL1     0.0428
     83 H         7.622437   -4.716259   -1.389039 H        1 UNL1     0.0428
     84 H         8.001501   -0.485215   -1.1488 H        1 UNL1     0.0428
     85 H         8.747796   -1.247428   -2.509386 H        1 UNL1     0.0428
     86 H         6.519737   -0.190064   -2.886992 H        1 UNL1     0.0317
     87 H         5.739987   -1.194865   -1.753539 H        1 UNL1     0.0317
     88 H         9.860028   -3.228375   -0.758167 H        1 UNL1     0.0429
     89 H         9.327939   -1.876903   0.245149 H        1 UNL1     0.0429
     90 H         8.953538   -4.840831   0.588351 H        1 UNL1     0.0308
     91 H         9.165267   -2.430983   2.471024 H        1 UNL1     0.0233
     92 H         8.824458   -4.082498   3.047084 H        1 UNL1     0.0233
     93 H         10.343322   -3.72012   2.255669 H        1 UNL1     0.0233
     94 H         6.824862   -4.321552   1.990933 H        1 UNL1     0.0233
     95 H         6.665388   -2.934119   0.902849 H        1 UNL1     0.0233
     96 H         6.684535   -4.584874   0.240555 H        1 UNL1     0.0233
     97 H         2.020407   -5.295469   -9.89537 H        1 UNL1     0.0280
     98 H         2.384445   -3.940832   -10.929595 H        1 UNL1     0.0280
     99 H         3.47602   -5.357749   -10.906379 H        1 UNL1     0.0280
     100 H         6.570374   -4.469483   -10.209033 H        1 UNL1     0.2922
     101 H         3.919454   3.482606   -3.544414 H        1 UNL1     0.0236
     102 H         2.301267   2.959224   -4.155645 H        1 UNL1     0.0236
     103 H         3.687809   3.013383   -5.199707 H        1 UNL1     0.0236
     104 H         2.445534   2.187353   -0.739438 H        1 UNL1     0.2098
     105 H         0.950997   -1.114381   -0.929811 H        1 UNL1     0.0234
     106 H         1.670954   0.014198   0.253011 H        1 UNL1     0.0234
     107 H         0.0   0.0   0.0 H        1 UNL1     0.0234
     108 H         0.35313   1.124977   -3.923557 H        1 UNL1     0.2098
     109 H         0.448835   -3.622597   -2.483687 H        1 UNL1     0.0234
     110 H         0.894213   -1.88639   -2.478385 H        1 UNL1     0.0234
     111 H         0.513442   -2.695972   -0.99905 H        1 UNL1     0.0234
     112 H         -3.133769   -1.702751   2.275597 H        1 UNL1     0.0342
     113 H         -1.778763   -1.094362   3.291501 H        1 UNL1     0.0342
     114 H         -3.033735   0.009613   2.722066 H        1 UNL1     0.0342
     115 H         -3.776289   1.638788   -2.203287 H        1 UNL1     0.0234
     116 H         -3.355436   0.506655   -3.492452 H        1 UNL1     0.0234
     117 H         -4.243056   0.011645   -2.036175 H        1 UNL1     0.0234
     118 H         -0.053147   -4.28333   -5.852904 H        1 UNL1     0.0309
     119 H         1.31278   -5.087656   -6.68679 H        1 UNL1     0.0309
     120 H         1.512015   -4.318338   -5.127747 H        1 UNL1     0.0309
     121 H         -4.534413   -0.733667   -3.816154 H        1 UNL1     0.0524
     122 H         -4.153277   -1.359549   -5.425459 H        1 UNL1     0.0524
     123 H         -4.115267   -2.455974   -4.021839 H        1 UNL1     0.0524
@<TRIPOS>BOND
     1     1     2    1
     2     1    42    1
     3     2     3    2
     4     3     4    1
     5     4     5    2
     6     5     7    1
     7     6    75    1
     8     6    76    1
     9     6    77    1
    10     7     9   am
    11     9    10    1
    12    10    11    2
    13    10    43    1
    14    11    14    1
    15    11    15    1
    16    12    13   ar
    17    12    27   ar
    18    12    43    1
    19    13    14    1
    20    13    30   ar
    21    14    17    2
    22    15    16    1
    23    16    17    1
    24    16    18    1
    25    16    22    1
    26    18    19    1
    27    19    20    1
    28    20    21    1
    29    21    22    1
    30    23    24    1
    31    23    88    1
    32    23    89    1
    33    24    25    1
    34    24    26    1
    35    24    90    1
    36    25    91    1
    37    25    92    1
    38    25    93    1
    39    26    94    1
    40    26    95    1
    41    26    96    1
    42    27    28   ar
    43    28    29   ar
    44    29    30   ar
    45    29    31    1
    46    30    33    1
    47    31    32    1
    48    32    33    1
    49    32    35    1
    50    34    97    1
    51    34    98    1
    52    34    99    1
    53    35    61    1
    54    36    37    1
    55    36    60    1
    56    37    38    1
    57    38    39    1
    58    39    40    1
    59    40    41    1
    60    41    42    1
    61    45   100    1
    62    47   101    1
    63    47   102    1
    64    47   103    1
    65    48   104    1
    66    49   105    1
    67    49   106    1
    68    49   107    1
    69    50   108    1
    70    51    59    1
    71    52   109    1
    72    52   110    1
    73    52   111    1
    74    53    54    1
    75    54    55    2
    76    54    56    1
    77    56   112    1
    78    56   113    1
    79    56   114    1
    80    57   115    1
    81    57   116    1
    82    57   117    1
    83    58   118    1
    84    58   119    1
    85    58   120    1
    86    59   121    1
    87    59   122    1
    88    59   123    1
    89    60    61    2
    90     1    47    1
    91     1    62    1
    92     2    63    1
    93     3    64    1
    94     4    65    1
    95     5     6    1
    96     7     8    2
    97     9    78    1
    98    15    79    1
    99    18    80    1
   100    18    81    1
   101    19    82    1
   102    19    83    1
   103    20    23    1
   104    21    84    1
   105    21    85    1
   106    22    86    1
   107    22    87    1
   108    27    45    1
   109    28    34    1
   110    32    58    1
   111    33    46    2
   112    36    51    1
   113    36    66    1
   114    37    52    1
   115    37    67    1
   116    38    53    1
   117    38    68    1
   118    42    48    1
   119    42    72    1
   120    43    44    2
   121    60    73    1
   122    61    74    1
   123    39    69    1
   124    39    57    1
   125    40    70    1
   126    40    50    1
   127    41    71    1
   128    41    49    1
