@<TRIPOS>MOLECULE
*****
 123 128 0 0 0
SMALL
GASTEIGER

@<TRIPOS>ATOM
     1 C         -2.862805   -2.807528   -0.983586 C.3        1 UNL1     0.0009
     2 C         -3.300224   -4.359883   -0.069312 C.2        1 UNL1     -0.0787
     3 C         -3.146589   -5.785543   0.130526 C.2        1 UNL1     -0.0649
     4 C         -3.813308   -6.742039   1.358109 C.2        1 UNL1     -0.0542
     5 C         -3.708878   -7.967519   2.061224 C.2        1 UNL1     0.0115
     6 C         -3.002093   -9.350821   2.077187 C.3        1 UNL1     -0.0348
     7 C         -4.447462   -8.115184   3.478855 C.2        1 UNL1     0.2441
     8 O         -5.503136   -8.717056   3.619669 O.2        1 UNL1     -0.2702
     9 N         -3.673485   -7.734047   4.588741 N.am        1 UNL1     -0.2772
     10 C         -3.819647   -6.388532   4.836826 C.2        1 UNL1     0.1049
     11 C         -3.065963   -5.578486   4.11571 C.2        1 UNL1     0.0801
     12 C         -5.544932   -4.598671   5.114544 C.ar        1 UNL1     0.0753
     13 C         -4.79571   -3.837735   4.161522 C.ar        1 UNL1     0.0305
     14 C         -3.461758   -4.250716   3.731326 C.2        1 UNL1     0.0924
     15 N         -2.019916   -5.853667   3.317845 N.pl3        1 UNL1     -0.3170
     16 C         -1.443675   -4.602674   2.901651 C.3        1 UNL1     0.1275
     17 N         -2.592911   -3.625258   2.942128 N.2        1 UNL1     -0.2557
     18 C         -0.475972   -4.164089   3.996592 C.3        1 UNL1     0.0016
     19 C         0.535508   -5.275863   4.225626 C.3        1 UNL1     0.0026
     20 N         1.239089   -5.532745   2.976621 N.3        1 UNL1     -0.3018
     21 C         0.384536   -5.901985   1.846237 C.3        1 UNL1     0.0026
     22 C         -0.620703   -4.769258   1.631016 C.3        1 UNL1     0.0016
     23 C         2.419435   -6.35511   3.153096 C.3        1 UNL1     0.0012
     24 C         2.043605   -7.845233   3.146483 C.3        1 UNL1     -0.0339
     25 C         2.829233   -8.628083   4.211374 C.3        1 UNL1     -0.0615
     26 C         0.544184   -8.004956   3.328153 C.3        1 UNL1     -0.0615
     27 C         -6.761993   -4.137032   5.610295 C.ar        1 UNL1     0.1347
     28 C         -7.309698   -2.916126   5.258927 C.ar        1 UNL1     0.0342
     29 C         -6.578738   -2.206536   4.282534 C.ar        1 UNL1     0.1435
     30 C         -5.376308   -2.673227   3.75001 C.ar        1 UNL1     0.0774
     31 O         -6.923722   -0.952567   3.917083 O.3        1 UNL1     -0.4436
     32 C         -5.738915   -0.411943   3.313072 C.3        1 UNL1     0.3143
     33 C         -4.939577   -1.617201   2.860717 C.2        1 UNL1     0.2504
     34 C         -8.474323   -2.245544   5.932772 C.3        1 UNL1     -0.0327
     35 O         -6.14493   0.287299   2.130083 O.2        1 UNL1     -0.4528
     36 C         -3.628747   3.090645   1.663003 C.3        1 UNL1     0.0854
     37 C         -2.06064   3.007674   1.515774 C.3        1 UNL1     0.0236
     38 C         -1.467239   3.708405   0.201013 C.3        1 UNL1     0.1131
     39 C         -2.077869   3.362453   -1.216633 C.3        1 UNL1     0.0200
     40 C         -2.429522   1.783201   -1.622516 C.3        1 UNL1     0.0661
     41 C         -1.383852   0.457935   -1.455627 C.3        1 UNL1     0.0091
     42 C         -1.744009   -1.303581   -1.091275 C.3        1 UNL1     0.0661
     43 C         -4.939936   -5.853871   5.625144 C.2        1 UNL1     0.2131
     44 O         -5.257035   -6.373444   6.679767 O.2        1 UNL1     -0.2851
     45 O         -7.449859   -4.959602   6.500046 O.3        1 UNL1     -0.5056
     46 O         -4.139062   -1.693989   1.955657 O.2        1 UNL1     -0.2836
     47 C         -3.547666   -2.790996   -2.376667 C.3        1 UNL1     -0.0566
     48 O         -0.87284   -1.823614   -2.172823 O.3        1 UNL1     -0.3909
     49 C         -0.221012   0.861481   -0.576736 C.3        1 UNL1     -0.0577
     50 O         -3.728096   1.431628   -1.189127 O.3        1 UNL1     -0.3910
     51 O         -4.325305   3.608079   0.551922 O.3        1 UNL1     -0.3753
     52 C         -1.49533   1.657238   2.065045 C.3        1 UNL1     -0.0564
     53 O         0.016744   3.92588   0.254168 O.3        1 UNL1     -0.4608
     54 C         0.877091   3.801091   -0.805153 C.2        1 UNL1     0.3042
     55 O         1.937365   3.177667   -0.836766 O.2        1 UNL1     -0.2512
     56 C         0.392014   4.475862   -2.056592 C.3        1 UNL1     0.0332
     57 C         -3.169871   4.480355   -1.557222 C.3        1 UNL1     -0.0567
     58 C         -4.962273   0.307184   4.440554 C.3        1 UNL1     0.0210
     59 C         -4.870823   4.91288   0.741048 C.3        1 UNL1     0.0372
     60 C         -4.294576   1.810864   2.029053 C.2        1 UNL1     -0.0208
     61 C         -5.395856   1.238779   1.540539 C.2        1 UNL1     0.0882
     62 H         -3.517966   -2.246723   -0.30611 H        1 UNL1     0.0365
     63 H         -4.072589   -3.98722   0.606739 H        1 UNL1     0.0576
     64 H         -2.41591   -6.367464   -0.435675 H        1 UNL1     0.0615
     65 H         -4.576935   -6.098901   1.803901 H        1 UNL1     0.0622
     66 H         -3.790698   3.768435   2.512956 H        1 UNL1     0.0645
     67 H         -1.681186   3.673997   2.309869 H        1 UNL1     0.0362
     68 H         -1.761608   4.750339   0.399111 H        1 UNL1     0.0741
     69 H         -1.368811   3.651443   -1.980916 H        1 UNL1     0.0359
     70 H         -2.52248   1.884748   -2.720745 H        1 UNL1     0.0600
     71 H         -0.909722   0.458562   -2.456705 H        1 UNL1     0.0348
     72 H         -2.687496   -0.869691   -1.453058 H        1 UNL1     0.0602
     73 H         -3.823501   1.405878   2.890054 H        1 UNL1     0.0628
     74 H         -5.903995   1.55717   0.629683 H        1 UNL1     0.1022
     75 H         -1.975653   -9.271609   1.644543 H        1 UNL1     0.0279
     76 H         -2.811073   -9.786754   3.055217 H        1 UNL1     0.0279
     77 H         -3.469818   -10.075264   1.39446 H        1 UNL1     0.0279
     78 H         -2.689053   -7.904468   4.393993 H        1 UNL1     0.1553
     79 H         -1.492778   -6.706228   3.364736 H        1 UNL1     0.1484
     80 H         0.015008   -3.233248   3.687984 H        1 UNL1     0.0317
     81 H         -1.011204   -3.942859   4.926235 H        1 UNL1     0.0317
     82 H         0.0564   -6.190293   4.605345 H        1 UNL1     0.0428
     83 H         1.214569   -4.943051   5.011223 H        1 UNL1     0.0428
     84 H         0.928219   -6.011288   0.902694 H        1 UNL1     0.0428
     85 H         -0.090259   -6.881566   1.9956 H        1 UNL1     0.0428
     86 H         -1.137854   -5.010137   0.720786 H        1 UNL1     0.0317
     87 H         -0.091678   -3.840644   1.384226 H        1 UNL1     0.0317
     88 H         3.098819   -6.162292   2.312529 H        1 UNL1     0.0429
     89 H         2.958807   -6.086832   4.070635 H        1 UNL1     0.0429
     90 H         2.272823   -8.26911   2.161597 H        1 UNL1     0.0308
     91 H         3.893709   -8.678252   3.963432 H        1 UNL1     0.0233
     92 H         2.711414   -8.167173   5.194883 H        1 UNL1     0.0233
     93 H         2.477432   -9.661786   4.313983 H        1 UNL1     0.0233
     94 H         0.054643   -8.109099   2.353813 H        1 UNL1     0.0233
     95 H         0.332232   -8.906353   3.909981 H        1 UNL1     0.0233
     96 H         0.110444   -7.142767   3.842417 H        1 UNL1     0.0233
     97 H         -8.64393   -1.243142   5.551125 H        1 UNL1     0.0280
     98 H         -9.414069   -2.790502   5.774169 H        1 UNL1     0.0280
     99 H         -8.283331   -2.175112   7.016126 H        1 UNL1     0.0280
     100 H         -7.317789   -5.881261   6.363206 H        1 UNL1     0.2922
     101 H         -4.572823   -3.149616   -2.286654 H        1 UNL1     0.0236
     102 H         -2.988514   -3.337063   -3.135707 H        1 UNL1     0.0236
     103 H         -3.643122   -1.768682   -2.779104 H        1 UNL1     0.0236
     104 H         -0.391959   -1.063711   -2.555279 H        1 UNL1     0.2098
     105 H         0.678722   1.137345   -1.120969 H        1 UNL1     0.0234
     106 H         -0.456837   1.618082   0.171507 H        1 UNL1     0.0234
     107 H         0.0   0.0   0.0 H        1 UNL1     0.0234
     108 H         -4.357143   1.764258   -1.858025 H        1 UNL1     0.2098
     109 H         -1.710125   1.520499   3.134099 H        1 UNL1     0.0234
     110 H         -1.847855   0.783876   1.505842 H        1 UNL1     0.0234
     111 H         -0.402115   1.608795   1.97295 H        1 UNL1     0.0234
     112 H         -0.327682   5.259714   -1.801717 H        1 UNL1     0.0342
     113 H         1.212367   4.876637   -2.650092 H        1 UNL1     0.0342
     114 H         -0.128249   3.727588   -2.670252 H        1 UNL1     0.0342
     115 H         -4.191041   4.075912   -1.528502 H        1 UNL1     0.0234
     116 H         -3.140848   5.346281   -0.892859 H        1 UNL1     0.0234
     117 H         -3.114926   4.846704   -2.596795 H        1 UNL1     0.0234
     118 H         -5.052214   1.405382   4.370721 H        1 UNL1     0.0309
     119 H         -5.264134   -0.013891   5.442549 H        1 UNL1     0.0309
     120 H         -3.881588   0.137965   4.380634 H        1 UNL1     0.0309
     121 H         -4.037297   5.609503   0.826527 H        1 UNL1     0.0524
     122 H         -5.487553   5.236456   -0.113926 H        1 UNL1     0.0524
     123 H         -5.476083   4.940136   1.64272 H        1 UNL1     0.0524
@<TRIPOS>BOND
     1     1     2    1
     2     1    42    1
     3     2     3    2
     4     3     4    1
     5     4     5    2
     6     5     7    1
     7     6    75    1
     8     6    76    1
     9     6    77    1
    10     7     9   am
    11     9    10    1
    12    10    11    2
    13    10    43    1
    14    11    14    1
    15    11    15    1
    16    12    13   ar
    17    12    27   ar
    18    12    43    1
    19    13    14    1
    20    13    30   ar
    21    14    17    2
    22    15    16    1
    23    16    17    1
    24    16    18    1
    25    16    22    1
    26    18    19    1
    27    19    20    1
    28    20    21    1
    29    21    22    1
    30    23    24    1
    31    23    88    1
    32    23    89    1
    33    24    25    1
    34    24    26    1
    35    24    90    1
    36    25    91    1
    37    25    92    1
    38    25    93    1
    39    26    94    1
    40    26    95    1
    41    26    96    1
    42    27    28   ar
    43    28    29   ar
    44    29    30   ar
    45    29    31    1
    46    30    33    1
    47    31    32    1
    48    32    33    1
    49    32    35    1
    50    34    97    1
    51    34    98    1
    52    34    99    1
    53    35    61    1
    54    36    37    1
    55    36    60    1
    56    37    38    1
    57    38    39    1
    58    39    40    1
    59    40    41    1
    60    41    42    1
    61    45   100    1
    62    47   101    1
    63    47   102    1
    64    47   103    1
    65    48   104    1
    66    49   105    1
    67    49   106    1
    68    49   107    1
    69    50   108    1
    70    51    59    1
    71    52   109    1
    72    52   110    1
    73    52   111    1
    74    53    54    1
    75    54    55    2
    76    54    56    1
    77    56   112    1
    78    56   113    1
    79    56   114    1
    80    57   115    1
    81    57   116    1
    82    57   117    1
    83    58   118    1
    84    58   119    1
    85    58   120    1
    86    59   121    1
    87    59   122    1
    88    59   123    1
    89    60    61    2
    90     1    47    1
    91     1    62    1
    92     2    63    1
    93     3    64    1
    94     4    65    1
    95     5     6    1
    96     7     8    2
    97     9    78    1
    98    15    79    1
    99    18    80    1
   100    18    81    1
   101    19    82    1
   102    19    83    1
   103    20    23    1
   104    21    84    1
   105    21    85    1
   106    22    86    1
   107    22    87    1
   108    27    45    1
   109    28    34    1
   110    32    58    1
   111    33    46    2
   112    36    51    1
   113    36    66    1
   114    37    52    1
   115    37    67    1
   116    38    53    1
   117    38    68    1
   118    42    48    1
   119    42    72    1
   120    43    44    2
   121    60    73    1
   122    61    74    1
   123    39    69    1
   124    39    57    1
   125    40    70    1
   126    40    50    1
   127    41    71    1
   128    41    49    1
