@<TRIPOS>MOLECULE
*****
 123 128 0 0 0
SMALL
GASTEIGER

@<TRIPOS>ATOM
     1 C         4.281451   2.186785   -0.824549 C.3        1 UNL1     0.0009
     2 C         6.079433   1.76646   -0.990762 C.2        1 UNL1     -0.0787
     3 C         7.359367   1.462401   -0.38631 C.2        1 UNL1     -0.0649
     4 C         8.790811   0.994979   -1.160159 C.2        1 UNL1     -0.0542
     5 C         10.049799   0.367387   -0.992362 C.2        1 UNL1     0.0115
     6 C         11.049315   -0.182171   0.062283 C.3        1 UNL1     -0.0348
     7 C         10.835035   -0.15804   -2.290176 C.2        1 UNL1     0.2441
     8 O         11.777825   0.443264   -2.786265 O.2        1 UNL1     -0.2702
     9 N         10.538408   -1.48069   -2.662685 N.am        1 UNL1     -0.2772
     10 C         9.453482   -1.509532   -3.508513 C.2        1 UNL1     0.1049
     11 C         8.265447   -1.474613   -2.932686 C.2        1 UNL1     0.0801
     12 C         8.523726   -0.457211   -5.57866 C.ar        1 UNL1     0.0753
     13 C         7.316076   -0.252929   -4.838079 C.ar        1 UNL1     0.0305
     14 C         7.104894   -0.873895   -3.532378 C.2        1 UNL1     0.0924
     15 N         7.926911   -1.625844   -1.640769 N.pl3        1 UNL1     -0.3170
     16 C         6.490831   -1.673418   -1.565508 C.3        1 UNL1     0.1275
     17 N         6.023321   -0.875741   -2.758348 N.2        1 UNL1     -0.2557
     18 C         6.07172   -3.116302   -1.830337 C.3        1 UNL1     0.0016
     19 C         6.782784   -4.019689   -0.835414 C.3        1 UNL1     0.0026
     20 N         6.419296   -3.607633   0.513331 N.3        1 UNL1     -0.3018
     21 C         6.72731   -2.214262   0.841986 C.3        1 UNL1     0.0026
     22 C         5.999207   -1.324397   -0.166924 C.3        1 UNL1     0.0016
     23 C         6.798147   -4.578179   1.520881 C.3        1 UNL1     0.0012
     24 C         5.923204   -5.836914   1.412162 C.3        1 UNL1     -0.0339
     25 C         5.661615   -6.460928   2.792827 C.3        1 UNL1     -0.0615
     26 C         4.626701   -5.509346   0.692052 C.3        1 UNL1     -0.0615
     27 C         8.669416   0.037666   -6.872488 C.ar        1 UNL1     0.1347
     28 C         7.666251   0.714904   -7.542607 C.ar        1 UNL1     0.0342
     29 C         6.504323   0.946761   -6.776233 C.ar        1 UNL1     0.1435
     30 C         6.357876   0.488418   -5.466388 C.ar        1 UNL1     0.0774
     31 O         5.397653   1.49604   -7.32266 O.3        1 UNL1     -0.4436
     32 C         4.335064   1.139457   -6.42565 C.3        1 UNL1     0.3143
     33 C         5.011657   0.872473   -5.096306 C.2        1 UNL1     0.2504
     34 C         7.656745   1.052442   -9.007557 C.3        1 UNL1     -0.0327
     35 O         3.516634   2.302615   -6.251046 O.2        1 UNL1     -0.4528
     36 C         0.006705   1.016101   -5.592735 C.3        1 UNL1     0.0854
     37 C         -0.501337   0.041337   -4.461695 C.3        1 UNL1     0.0236
     38 C         -1.702912   0.612786   -3.566481 C.3        1 UNL1     0.1131
     39 C         -1.580593   2.047554   -2.911691 C.3        1 UNL1     0.0200
     40 C         -0.158909   2.524379   -2.181011 C.3        1 UNL1     0.0661
     41 C         0.714106   1.634521   -1.03053 C.3        1 UNL1     0.0091
     42 C         2.518296   1.551917   -0.708851 C.3        1 UNL1     0.0661
     43 C         9.582563   -1.290582   -4.956876 C.2        1 UNL1     0.2131
     44 O         10.453503   -1.856639   -5.592312 O.2        1 UNL1     -0.2851
     45 O         9.893325   -0.165251   -7.506766 O.3        1 UNL1     -0.5056
     46 O         4.550041   0.97526   -3.981766 O.2        1 UNL1     -0.2836
     47 C         4.111642   3.668399   -0.39331 C.3        1 UNL1     -0.0566
     48 O         2.379701   1.717433   0.758293 O.3        1 UNL1     -0.3909
     49 C         0.198371   0.212767   -1.019313 C.3        1 UNL1     -0.0577
     50 O         0.725693   3.089999   -3.127201 O.3        1 UNL1     -0.3910
     51 O         -0.528465   2.320106   -5.568348 O.3        1 UNL1     -0.3753
     52 C         0.667345   -0.796354   -3.847362 C.3        1 UNL1     -0.0564
     53 O         -2.394726   -0.438129   -2.748375 O.3        1 UNL1     -0.4608
     54 C         -3.658622   -0.336899   -2.228519 C.2        1 UNL1     0.3042
     55 O         -3.969624   -0.09321   -1.063302 O.2        1 UNL1     -0.2512
     56 C         -4.745091   -0.495868   -3.253716 C.3        1 UNL1     0.0332
     57 C         -2.300698   3.087426   -3.890613 C.3        1 UNL1     -0.0567
     58 C         3.73976   -0.185095   -6.95735 C.3        1 UNL1     0.0210
     59 C         -1.406527   2.587316   -4.475887 C.3        1 UNL1     0.0372
     60 C         1.485392   1.16056   -5.680929 C.2        1 UNL1     -0.0208
     61 C         2.240478   2.250622   -5.8236 C.2        1 UNL1     0.0882
     62 H         4.195515   2.167209   -1.917684 H        1 UNL1     0.0365
     63 H         6.20203   1.821456   -2.074466 H        1 UNL1     0.0576
     64 H         7.469415   1.348574   0.69445 H        1 UNL1     0.0615
     65 H         8.603485   1.221062   -2.213382 H        1 UNL1     0.0622
     66 H         -0.305714   0.536685   -6.531138 H        1 UNL1     0.0645
     67 H         -1.005962   -0.770337   -5.014052 H        1 UNL1     0.0362
     68 H         -2.478861   0.710712   -4.340971 H        1 UNL1     0.0741
     69 H         -2.298703   2.124901   -2.106245 H        1 UNL1     0.0359
     70 H         -0.526248   3.388357   -1.594782 H        1 UNL1     0.0600
     71 H         0.268792   2.034286   -0.098414 H        1 UNL1     0.0348
     72 H         2.353596   2.479344   -1.276362 H        1 UNL1     0.0602
     73 H         1.927405   0.197154   -5.741932 H        1 UNL1     0.0628
     74 H         1.874802   3.272412   -5.716534 H        1 UNL1     0.1022
     75 H         11.195046   0.556842   0.886696 H        1 UNL1     0.0279
     76 H         10.743563   -1.076451   0.600658 H        1 UNL1     0.0279
     77 H         12.072875   -0.274555   -0.329498 H        1 UNL1     0.0279
     78 H         10.296706   -2.022889   -1.835837 H        1 UNL1     0.1553
     79 H         8.521764   -2.054359   -0.9556 H        1 UNL1     0.1484
     80 H         4.981998   -3.195262   -1.735273 H        1 UNL1     0.0317
     81 H         6.319356   -3.413927   -2.854908 H        1 UNL1     0.0317
     82 H         7.873685   -3.999834   -0.974888 H        1 UNL1     0.0428
     83 H         6.471098   -5.043762   -1.043202 H        1 UNL1     0.0428
     84 H         6.372613   -1.908171   1.831082 H        1 UNL1     0.0428
     85 H         7.810371   -2.032807   0.879009 H        1 UNL1     0.0428
     86 H         6.137694   -0.317856   0.181911 H        1 UNL1     0.0317
     87 H         4.915718   -1.474423   -0.085445 H        1 UNL1     0.0317
     88 H         7.843671   -4.863006   1.34468 H        1 UNL1     0.0429
     89 H         6.747837   -4.146817   2.528934 H        1 UNL1     0.0429
     90 H         6.435005   -6.577092   0.785737 H        1 UNL1     0.0308
     91 H         5.388023   -5.698622   3.528449 H        1 UNL1     0.0233
     92 H         4.86474   -7.2061   2.735241 H        1 UNL1     0.0233
     93 H         6.540987   -6.983551   3.188309 H        1 UNL1     0.0233
     94 H         3.858695   -6.249466   0.941499 H        1 UNL1     0.0233
     95 H         4.262815   -4.52701   1.006004 H        1 UNL1     0.0233
     96 H         4.762995   -5.505045   -0.393017 H        1 UNL1     0.0233
     97 H         8.369284   1.835234   -9.249955 H        1 UNL1     0.0280
     98 H         7.931147   0.192335   -9.632197 H        1 UNL1     0.0280
     99 H         6.651552   1.397405   -9.300273 H        1 UNL1     0.0280
     100 H         9.862482   -0.105608   -8.445442 H        1 UNL1     0.2922
     101 H         3.792701   4.265631   -1.247269 H        1 UNL1     0.0236
     102 H         4.999783   4.080138   0.084875 H        1 UNL1     0.0236
     103 H         3.307967   3.79344   0.351448 H        1 UNL1     0.0236
     104 H         2.571676   2.652138   0.969108 H        1 UNL1     0.2098
     105 H         -0.723892   0.06517   -1.575602 H        1 UNL1     0.0234
     106 H         0.933946   -0.540695   -1.300652 H        1 UNL1     0.0234
     107 H         0.0   -0.0   0.0 H        1 UNL1     0.0234
     108 H         1.288402   3.730863   -2.651364 H        1 UNL1     0.2098
     109 H         1.568982   -0.191145   -3.678589 H        1 UNL1     0.0234
     110 H         0.389393   -1.306548   -2.918822 H        1 UNL1     0.0234
     111 H         0.976775   -1.61057   -4.516131 H        1 UNL1     0.0234
     112 H         -5.724395   -0.383789   -2.778589 H        1 UNL1     0.0342
     113 H         -4.631013   0.200918   -4.082763 H        1 UNL1     0.0342
     114 H         -4.684017   -1.513516   -3.663385 H        1 UNL1     0.0342
     115 H         -2.612678   2.613713   -4.831599 H        1 UNL1     0.0234
     116 H         -3.18005   3.568638   -3.45792 H        1 UNL1     0.0234
     117 H         -1.628061   3.879006   -4.263307 H        1 UNL1     0.0234
     118 H         4.339277   -0.607244   -7.782805 H        1 UNL1     0.0309
     119 H         3.617794   -0.944524   -6.178509 H        1 UNL1     0.0309
     120 H         2.75002   -0.050452   -7.407231 H        1 UNL1     0.0309
     121 H         -2.08503   3.38195   -4.784993 H        1 UNL1     0.0524
     122 H         -2.0209   1.711327   -4.209005 H        1 UNL1     0.0524
     123 H         -0.837909   2.898007   -3.60397 H        1 UNL1     0.0524
@<TRIPOS>BOND
     1     1     2    1
     2     1    42    1
     3     2     3    2
     4     3     4    1
     5     4     5    2
     6     5     7    1
     7     6    75    1
     8     6    76    1
     9     6    77    1
    10     7     9   am
    11     9    10    1
    12    10    11    2
    13    10    43    1
    14    11    14    1
    15    11    15    1
    16    12    13   ar
    17    12    27   ar
    18    12    43    1
    19    13    14    1
    20    13    30   ar
    21    14    17    2
    22    15    16    1
    23    16    17    1
    24    16    18    1
    25    16    22    1
    26    18    19    1
    27    19    20    1
    28    20    21    1
    29    21    22    1
    30    23    24    1
    31    23    88    1
    32    23    89    1
    33    24    25    1
    34    24    26    1
    35    24    90    1
    36    25    91    1
    37    25    92    1
    38    25    93    1
    39    26    94    1
    40    26    95    1
    41    26    96    1
    42    27    28   ar
    43    28    29   ar
    44    29    30   ar
    45    29    31    1
    46    30    33    1
    47    31    32    1
    48    32    33    1
    49    32    35    1
    50    34    97    1
    51    34    98    1
    52    34    99    1
    53    35    61    1
    54    36    37    1
    55    36    60    1
    56    37    38    1
    57    38    39    1
    58    39    40    1
    59    40    41    1
    60    41    42    1
    61    45   100    1
    62    47   101    1
    63    47   102    1
    64    47   103    1
    65    48   104    1
    66    49   105    1
    67    49   106    1
    68    49   107    1
    69    50   108    1
    70    51    59    1
    71    52   109    1
    72    52   110    1
    73    52   111    1
    74    53    54    1
    75    54    55    2
    76    54    56    1
    77    56   112    1
    78    56   113    1
    79    56   114    1
    80    57   115    1
    81    57   116    1
    82    57   117    1
    83    58   118    1
    84    58   119    1
    85    58   120    1
    86    59   121    1
    87    59   122    1
    88    59   123    1
    89    60    61    2
    90     1    47    1
    91     1    62    1
    92     2    63    1
    93     3    64    1
    94     4    65    1
    95     5     6    1
    96     7     8    2
    97     9    78    1
    98    15    79    1
    99    18    80    1
   100    18    81    1
   101    19    82    1
   102    19    83    1
   103    20    23    1
   104    21    84    1
   105    21    85    1
   106    22    86    1
   107    22    87    1
   108    27    45    1
   109    28    34    1
   110    32    58    1
   111    33    46    2
   112    36    51    1
   113    36    66    1
   114    37    52    1
   115    37    67    1
   116    38    53    1
   117    38    68    1
   118    42    48    1
   119    42    72    1
   120    43    44    2
   121    60    73    1
   122    61    74    1
   123    39    69    1
   124    39    57    1
   125    40    70    1
   126    40    50    1
   127    41    71    1
   128    41    49    1
