@<TRIPOS>MOLECULE
*****
 123 128 0 0 0
SMALL
GASTEIGER

@<TRIPOS>ATOM
     1 C         5.167006   1.749556   0.490281 C.3        1 UNL1     0.0009
     2 C         6.603218   2.556391   -0.360218 C.2        1 UNL1     -0.0787
     3 C         7.884868   2.458804   -1.026474 C.2        1 UNL1     -0.0649
     4 C         8.761791   3.694495   -1.781744 C.2        1 UNL1     -0.0542
     5 C         9.781409   3.98783   -2.720579 C.2        1 UNL1     0.0115
     6 C         10.909408   3.363059   -3.586952 C.3        1 UNL1     -0.0348
     7 C         9.876229   5.471421   -3.326348 C.2        1 UNL1     0.2441
     8 O         10.700091   6.293034   -2.948553 O.2        1 UNL1     -0.2702
     9 N         9.125531   5.678849   -4.496637 N.am        1 UNL1     -0.2772
     10 C         7.842857   6.065113   -4.182203 C.2        1 UNL1     0.1049
     11 C         6.997371   5.093382   -3.89046 C.2        1 UNL1     0.0801
     12 C         6.544673   7.670774   -2.770146 C.ar        1 UNL1     0.0753
     13 C         5.786005   6.542477   -2.322961 C.ar        1 UNL1     0.0305
     14 C         5.902953   5.237135   -2.969069 C.2        1 UNL1     0.0924
     15 N         7.120194   3.764511   -4.050286 N.pl3        1 UNL1     -0.3170
     16 C         5.85057   3.164927   -3.735948 C.3        1 UNL1     0.1275
     17 N         5.214347   4.119526   -2.755293 N.2        1 UNL1     -0.2557
     18 C         4.997239   3.224486   -4.99927 C.3        1 UNL1     0.0016
     19 C         5.751834   2.541129   -6.128517 C.3        1 UNL1     0.0026
     20 N         6.022392   1.162881   -5.743475 N.3        1 UNL1     -0.3018
     21 C         6.786242   1.001993   -4.504517 C.3        1 UNL1     0.0026
     22 C         6.007778   1.691777   -3.382872 C.3        1 UNL1     0.0016
     23 C         6.466646   0.344007   -6.853758 C.3        1 UNL1     0.0012
     24 C         5.310884   0.094814   -7.835528 C.3        1 UNL1     -0.0339
     25 C         5.345959   1.087578   -9.009089 C.3        1 UNL1     -0.0615
     26 C         5.340089   -1.344427   -8.319794 C.3        1 UNL1     -0.0615
     27 C         6.339965   8.938148   -2.229796 C.ar        1 UNL1     0.1347
     28 C         5.381212   9.207009   -1.269298 C.ar        1 UNL1     0.0342
     29 C         4.680046   8.072182   -0.809191 C.ar        1 UNL1     0.1435
     30 C         4.899552   6.79046   -1.315379 C.ar        1 UNL1     0.0774
     31 O         3.639352   8.185102   0.044748 O.3        1 UNL1     -0.4436
     32 C         2.917864   6.952214   -0.097779 C.3        1 UNL1     0.3143
     33 C         3.931156   5.959583   -0.630822 C.2        1 UNL1     0.2504
     34 C         4.93427   10.572797   -0.827749 C.3        1 UNL1     -0.0327
     35 O         2.557809   6.514764   1.218371 O.2        1 UNL1     -0.4528
     36 C         -0.685006   4.582144   0.821869 C.3        1 UNL1     0.0854
     37 C         -0.990404   3.321961   -0.076014 C.3        1 UNL1     0.0236
     38 C         -1.590412   2.060394   0.711504 C.3        1 UNL1     0.1131
     39 C         -0.864056   1.528936   2.01236 C.3        1 UNL1     0.0200
     40 C         0.79718   1.383696   2.052822 C.3        1 UNL1     0.0661
     41 C         1.756256   0.615653   0.883252 C.3        1 UNL1     0.0091
     42 C         3.463557   0.978834   0.318784 C.3        1 UNL1     0.0661
     43 C         7.49433   7.463832   -3.891568 C.2        1 UNL1     0.2131
     44 O         7.893762   8.362355   -4.609793 O.2        1 UNL1     -0.2851
     45 O         7.151854   9.973648   -2.688068 O.3        1 UNL1     -0.5056
     46 O         3.947431   4.755985   -0.500664 O.2        1 UNL1     -0.2836
     47 C         5.564002   1.319425   1.928114 C.3        1 UNL1     -0.0566
     48 O         3.912428   -0.432224   0.399681 O.3        1 UNL1     -0.3909
     49 C         0.92164   0.383529   -0.356517 C.3        1 UNL1     -0.0577
     50 O         1.397291   2.601477   2.446016 O.3        1 UNL1     -0.3910
     51 O         -0.808525   4.39174   2.213243 O.3        1 UNL1     -0.3753
     52 C         0.053641   3.162277   -1.229019 C.3        1 UNL1     -0.0564
     53 O         -2.193158   1.021748   -0.188629 O.3        1 UNL1     -0.4608
     54 C         -2.427182   -0.285221   0.150479 C.2        1 UNL1     0.3042
     55 O         -1.858058   -1.284019   -0.288085 O.2        1 UNL1     -0.2512
     56 C         -3.466757   -0.451609   1.222072 C.3        1 UNL1     0.0332
     57 C         -1.58473   2.197152   3.27422 C.3        1 UNL1     -0.0567
     58 C         1.842204   7.197641   -1.181408 C.3        1 UNL1     0.0210
     59 C         -1.121666   5.570311   2.954038 C.3        1 UNL1     0.0372
     60 C         0.643778   5.211602   0.591058 C.2        1 UNL1     -0.0208
     61 C         1.556964   5.646575   1.46033 C.2        1 UNL1     0.0882
     62 H         4.690929   2.733592   0.578227 H        1 UNL1     0.0365
     63 H         6.336807   3.610086   -0.254282 H        1 UNL1     0.0576
     64 H         8.342624   1.492154   -1.248184 H        1 UNL1     0.0615
     65 H         8.274665   4.609623   -1.434278 H        1 UNL1     0.0622
     66 H         -1.429921   5.328683   0.512309 H        1 UNL1     0.0645
     67 H         -1.856249   3.631465   -0.686817 H        1 UNL1     0.0362
     68 H         -2.537431   2.496911   1.063827 H        1 UNL1     0.0741
     69 H         -1.195308   0.517676   2.207385 H        1 UNL1     0.0359
     70 H         0.909426   0.722947   2.933658 H        1 UNL1     0.0600
     71 H         1.800202   -0.405717   1.309667 H        1 UNL1     0.0348
     72 H         3.357962   1.46653   1.298742 H        1 UNL1     0.0602
     73 H         0.761232   5.409391   -0.445442 H        1 UNL1     0.0628
     74 H         1.539876   5.435374   2.530069 H        1 UNL1     0.1022
     75 H         10.952084   2.257301   -3.436912 H        1 UNL1     0.0279
     76 H         10.796814   3.44896   -4.665383 H        1 UNL1     0.0279
     77 H         11.914667   3.665345   -3.258656 H        1 UNL1     0.0279
     78 H         9.063493   4.809149   -5.021853 H        1 UNL1     0.1553
     79 H         7.785306   3.336955   -4.66815 H        1 UNL1     0.1484
     80 H         4.036128   2.733271   -4.805003 H        1 UNL1     0.0317
     81 H         4.770326   4.26133   -5.269669 H        1 UNL1     0.0317
     82 H         6.682298   3.072733   -6.376603 H        1 UNL1     0.0428
     83 H         5.126323   2.596595   -7.019981 H        1 UNL1     0.0428
     84 H         6.906883   -0.041089   -4.195913 H        1 UNL1     0.0428
     85 H         7.816223   1.370275   -4.608556 H        1 UNL1     0.0428
     86 H         6.524605   1.441063   -2.475116 H        1 UNL1     0.0317
     87 H         5.028474   1.21389   -3.257636 H        1 UNL1     0.0317
     88 H         7.262399   0.886218   -7.38109 H        1 UNL1     0.0429
     89 H         6.89956   -0.601856   -6.503469 H        1 UNL1     0.0429
     90 H         4.358036   0.213444   -7.30617 H        1 UNL1     0.0308
     91 H         6.298929   1.037249   -9.544269 H        1 UNL1     0.0233
     92 H         4.530832   0.887793   -9.708563 H        1 UNL1     0.0233
     93 H         5.219757   2.126502   -8.681146 H        1 UNL1     0.0233
     94 H         4.645298   -1.475614   -9.156389 H        1 UNL1     0.0233
     95 H         6.343507   -1.599961   -8.67167 H        1 UNL1     0.0233
     96 H         5.057603   -2.039096   -7.523801 H        1 UNL1     0.0233
     97 H         4.134935   10.522637   -0.094416 H        1 UNL1     0.0280
     98 H         5.744677   11.139279   -0.350679 H        1 UNL1     0.0280
     99 H         4.56895   11.141067   -1.698786 H        1 UNL1     0.0280
     100 H         6.684564   10.724851   -3.008939 H        1 UNL1     0.2922
     101 H         4.701471   0.88537   2.433379 H        1 UNL1     0.0236
     102 H         6.014854   2.124573   2.507297 H        1 UNL1     0.0236
     103 H         6.320406   0.516903   1.926323 H        1 UNL1     0.0236
     104 H         4.332014   -0.558653   1.273142 H        1 UNL1     0.2098
     105 H         0.708593   1.2826   -0.929312 H        1 UNL1     0.0234
     106 H         1.290924   -0.404099   -1.013174 H        1 UNL1     0.0234
     107 H         0.0   -0.0   0.0 H        1 UNL1     0.0234
     108 H         1.203736   3.25837   1.749743 H        1 UNL1     0.2098
     109 H         1.078647   3.048816   -0.849283 H        1 UNL1     0.0234
     110 H         -0.178908   2.335464   -1.908758 H        1 UNL1     0.0234
     111 H         0.074404   4.045414   -1.881388 H        1 UNL1     0.0234
     112 H         -3.58985   -1.512628   1.459628 H        1 UNL1     0.0342
     113 H         -3.229606   0.123875   2.115617 H        1 UNL1     0.0342
     114 H         -4.424398   -0.080609   0.831628 H        1 UNL1     0.0342
     115 H         -2.65429   1.948648   3.312625 H        1 UNL1     0.0234
     116 H         -1.147839   1.917008   4.234791 H        1 UNL1     0.0234
     117 H         -1.623563   3.299024   3.226145 H        1 UNL1     0.0234
     118 H         0.940575   7.68276   -0.768212 H        1 UNL1     0.0309
     119 H         2.210697   7.787409   -2.026742 H        1 UNL1     0.0309
     120 H         1.454754   6.265851   -1.607734 H        1 UNL1     0.0309
     121 H         -0.300809   6.273705   2.816971 H        1 UNL1     0.0524
     122 H         -2.041701   6.059349   2.592906 H        1 UNL1     0.0524
     123 H         -1.239176   5.332034   4.007371 H        1 UNL1     0.0524
@<TRIPOS>BOND
     1     1     2    1
     2     1    42    1
     3     2     3    2
     4     3     4    1
     5     4     5    2
     6     5     7    1
     7     6    75    1
     8     6    76    1
     9     6    77    1
    10     7     9   am
    11     9    10    1
    12    10    11    2
    13    10    43    1
    14    11    14    1
    15    11    15    1
    16    12    13   ar
    17    12    27   ar
    18    12    43    1
    19    13    14    1
    20    13    30   ar
    21    14    17    2
    22    15    16    1
    23    16    17    1
    24    16    18    1
    25    16    22    1
    26    18    19    1
    27    19    20    1
    28    20    21    1
    29    21    22    1
    30    23    24    1
    31    23    88    1
    32    23    89    1
    33    24    25    1
    34    24    26    1
    35    24    90    1
    36    25    91    1
    37    25    92    1
    38    25    93    1
    39    26    94    1
    40    26    95    1
    41    26    96    1
    42    27    28   ar
    43    28    29   ar
    44    29    30   ar
    45    29    31    1
    46    30    33    1
    47    31    32    1
    48    32    33    1
    49    32    35    1
    50    34    97    1
    51    34    98    1
    52    34    99    1
    53    35    61    1
    54    36    37    1
    55    36    60    1
    56    37    38    1
    57    38    39    1
    58    39    40    1
    59    40    41    1
    60    41    42    1
    61    45   100    1
    62    47   101    1
    63    47   102    1
    64    47   103    1
    65    48   104    1
    66    49   105    1
    67    49   106    1
    68    49   107    1
    69    50   108    1
    70    51    59    1
    71    52   109    1
    72    52   110    1
    73    52   111    1
    74    53    54    1
    75    54    55    2
    76    54    56    1
    77    56   112    1
    78    56   113    1
    79    56   114    1
    80    57   115    1
    81    57   116    1
    82    57   117    1
    83    58   118    1
    84    58   119    1
    85    58   120    1
    86    59   121    1
    87    59   122    1
    88    59   123    1
    89    60    61    2
    90     1    47    1
    91     1    62    1
    92     2    63    1
    93     3    64    1
    94     4    65    1
    95     5     6    1
    96     7     8    2
    97     9    78    1
    98    15    79    1
    99    18    80    1
   100    18    81    1
   101    19    82    1
   102    19    83    1
   103    20    23    1
   104    21    84    1
   105    21    85    1
   106    22    86    1
   107    22    87    1
   108    27    45    1
   109    28    34    1
   110    32    58    1
   111    33    46    2
   112    36    51    1
   113    36    66    1
   114    37    52    1
   115    37    67    1
   116    38    53    1
   117    38    68    1
   118    42    48    1
   119    42    72    1
   120    43    44    2
   121    60    73    1
   122    61    74    1
   123    39    69    1
   124    39    57    1
   125    40    70    1
   126    40    50    1
   127    41    71    1
   128    41    49    1
