@<TRIPOS>MOLECULE
*****
 123 128 0 0 0
SMALL
GASTEIGER

@<TRIPOS>ATOM
     1 C         4.096632   -0.558849   -0.936109 C.3        1 UNL1     0.0009
     2 C         5.312677   0.721118   -1.501753 C.2        1 UNL1     -0.0787
     3 C         6.102123   1.325248   -2.554297 C.2        1 UNL1     -0.0649
     4 C         7.057593   2.720253   -2.468285 C.2        1 UNL1     -0.0542
     5 C         7.684952   3.745847   -3.21772 C.2        1 UNL1     0.0115
     6 C         8.059391   4.202697   -4.654525 C.3        1 UNL1     -0.0348
     7 C         8.140119   5.089509   -2.466464 C.2        1 UNL1     0.2441
     8 O         9.300788   5.316383   -2.153573 O.2        1 UNL1     -0.2702
     9 N         7.164428   6.100689   -2.425333 N.am        1 UNL1     -0.2772
     10 C         6.361192   5.948209   -1.318589 C.2        1 UNL1     0.1049
     11 C         5.368078   5.085371   -1.434604 C.2        1 UNL1     0.0801
     12 C         6.440552   5.583078   1.154813 C.ar        1 UNL1     0.0753
     13 C         5.514184   4.511889   0.947435 C.ar        1 UNL1     0.0305
     14 C         4.84796   4.314513   -0.337959 C.2        1 UNL1     0.0924
     15 N         4.876122   4.476313   -2.527104 N.pl3        1 UNL1     -0.3170
     16 C         3.68608   3.767939   -2.136899 C.3        1 UNL1     0.1275
     17 N         3.898766   3.446995   -0.677624 N.2        1 UNL1     -0.2557
     18 C         2.530531   4.762843   -2.187638 C.3        1 UNL1     0.0016
     19 C         2.4718   5.369376   -3.580569 C.3        1 UNL1     0.0026
     20 N         2.284089   4.29845   -4.549544 N.3        1 UNL1     -0.3018
     21 C         3.314828   3.258398   -4.53419 C.3        1 UNL1     0.0026
     22 C         3.353358   2.659635   -3.127104 C.3        1 UNL1     0.0016
     23 C         1.917641   4.785543   -5.864497 C.3        1 UNL1     0.0012
     24 C         0.487688   5.348403   -5.851173 C.3        1 UNL1     -0.0339
     25 C         0.488085   6.885616   -5.883336 C.3        1 UNL1     -0.0615
     26 C         -0.312225   4.765387   -7.003133 C.3        1 UNL1     -0.0615
     27 C         6.979034   5.838033   2.413842 C.ar        1 UNL1     0.1347
     28 C         6.637437   5.117729   3.54456 C.ar        1 UNL1     0.0342
     29 C         5.761365   4.037309   3.307163 C.ar        1 UNL1     0.1435
     30 C         5.242057   3.747524   2.044799 C.ar        1 UNL1     0.0774
     31 O         5.249015   3.309083   4.323131 O.3        1 UNL1     -0.4436
     32 C         4.094729   2.665804   3.762159 C.3        1 UNL1     0.3143
     33 C         4.347248   2.631246   2.268421 C.2        1 UNL1     0.2504
     34 C         6.976328   5.488038   4.961642 C.3        1 UNL1     -0.0327
     35 O         4.100617   1.307273   4.217803 O.2        1 UNL1     -0.4528
     36 C         0.458132   0.255107   4.400402 C.3        1 UNL1     0.0854
     37 C         -0.636334   0.252629   3.26477 C.3        1 UNL1     0.0236
     38 C         -1.358367   -1.159092   3.025072 C.3        1 UNL1     0.1131
     39 C         -0.485772   -2.462635   2.821056 C.3        1 UNL1     0.0200
     40 C         0.862397   -2.431769   1.839258 C.3        1 UNL1     0.0661
     41 C         0.925998   -1.822029   0.257555 C.3        1 UNL1     0.0091
     42 C         2.295394   -1.003565   -0.648135 C.3        1 UNL1     0.0661
     43 C         6.740325   6.46958   0.003071 C.2        1 UNL1     0.2131
     44 O         7.173331   7.601654   0.119915 O.2        1 UNL1     -0.2851
     45 O         7.908481   6.870556   2.52091 O.3        1 UNL1     -0.5056
     46 O         3.923203   1.845734   1.450491 O.2        1 UNL1     -0.2836
     47 C         4.784523   -1.946465   -0.829764 C.3        1 UNL1     -0.0566
     48 O         2.131994   -1.827854   -1.870004 O.3        1 UNL1     -0.3909
     49 C         -0.322878   -1.009634   -0.00286 C.3        1 UNL1     -0.0577
     50 O         2.001077   -2.013328   2.564543 O.3        1 UNL1     -0.3910
     51 O         0.78953   -1.004713   4.939347 O.3        1 UNL1     -0.3753
     52 C         -0.250027   1.20005   2.082353 C.3        1 UNL1     -0.0564
     53 O         -2.613425   -1.060686   2.208082 O.3        1 UNL1     -0.4608
     54 C         -3.029857   -1.975865   1.276974 C.2        1 UNL1     0.3042
     55 O         -4.063813   -2.642523   1.295442 O.2        1 UNL1     -0.2512
     56 C         -2.107656   -2.095688   0.097185 C.3        1 UNL1     0.0332
     57 C         -0.355957   -3.183522   4.242901 C.3        1 UNL1     -0.0567
     58 C         2.893968   3.598785   4.043667 C.3        1 UNL1     0.0210
     59 C         0.30888   -1.23572   6.262781 C.3        1 UNL1     0.0372
     60 C         1.740513   0.91705   4.036409 C.2        1 UNL1     -0.0208
     61 C         3.000796   0.530121   4.238197 C.2        1 UNL1     0.0882
     62 H         4.127065   -0.116775   0.067064 H        1 UNL1     0.0365
     63 H         5.553498   1.206244   -0.55353 H        1 UNL1     0.0576
     64 H         6.01416   1.001115   -3.593676 H        1 UNL1     0.0615
     65 H         7.146413   2.909528   -1.39508 H        1 UNL1     0.0622
     66 H         0.021319   0.865395   5.203389 H        1 UNL1     0.0645
     67 H         -1.461562   0.852415   3.686451 H        1 UNL1     0.0362
     68 H         -1.846164   -1.284729   4.003741 H        1 UNL1     0.0741
     69 H         -1.099547   -3.223235   2.357185 H        1 UNL1     0.0359
     70 H         1.013828   -3.517852   1.689082 H        1 UNL1     0.0600
     71 H         0.707604   -2.745149   -0.314382 H        1 UNL1     0.0348
     72 H         2.764059   -1.541115   0.188948 H        1 UNL1     0.0602
     73 H         1.537525   1.889405   3.661482 H        1 UNL1     0.0628
     74 H         3.29469   -0.468249   4.563959 H        1 UNL1     0.1022
     75 H         8.525888   3.362877   -5.223837 H        1 UNL1     0.0279
     76 H         7.234892   4.494537   -5.301131 H        1 UNL1     0.0279
     77 H         8.867917   4.948246   -4.666563 H        1 UNL1     0.0279
     78 H         6.568443   6.034588   -3.247836 H        1 UNL1     0.1553
     79 H         5.03368   4.80004   -3.463752 H        1 UNL1     0.1484
     80 H         1.598538   4.241344   -1.93825 H        1 UNL1     0.0317
     81 H         2.659244   5.550632   -1.437655 H        1 UNL1     0.0317
     82 H         3.374616   5.955152   -3.807953 H        1 UNL1     0.0428
     83 H         1.642236   6.07697   -3.594118 H        1 UNL1     0.0428
     84 H         3.108608   2.426396   -5.214673 H        1 UNL1     0.0428
     85 H         4.288114   3.642469   -4.869631 H        1 UNL1     0.0428
     86 H         4.019085   1.818777   -3.188375 H        1 UNL1     0.0317
     87 H         2.386112   2.200693   -2.888558 H        1 UNL1     0.0317
     88 H         2.60917   5.594531   -6.133981 H        1 UNL1     0.0429
     89 H         2.027611   4.001757   -6.624996 H        1 UNL1     0.0429
     90 H         -0.019712   5.018405   -4.93692 H        1 UNL1     0.0308
     91 H         -0.456331   7.275486   -6.274721 H        1 UNL1     0.0233
     92 H         0.657463   7.292863   -4.883802 H        1 UNL1     0.0233
     93 H         1.286338   7.289856   -6.517543 H        1 UNL1     0.0233
     94 H         -0.24852   3.671928   -6.991941 H        1 UNL1     0.0233
     95 H         -1.365487   5.042735   -6.904746 H        1 UNL1     0.0233
     96 H         0.058418   5.123279   -7.967761 H        1 UNL1     0.0233
     97 H         6.088356   5.60506   5.57568 H        1 UNL1     0.0280
     98 H         7.584475   4.719328   5.456111 H        1 UNL1     0.0280
     99 H         7.531293   6.440409   4.971566 H        1 UNL1     0.0280
     100 H         8.598466   6.844102   1.881501 H        1 UNL1     0.2922
     101 H         5.757291   -1.83882   -0.350398 H        1 UNL1     0.0236
     102 H         4.854703   -2.464485   -1.785647 H        1 UNL1     0.0236
     103 H         4.225413   -2.636876   -0.17637 H        1 UNL1     0.0236
     104 H         1.329133   -2.37258   -1.753133 H        1 UNL1     0.2098
     105 H         -0.794049   -1.205549   -0.96277 H        1 UNL1     0.0234
     106 H         -1.063729   -1.044754   0.795784 H        1 UNL1     0.0234
     107 H         0.0   0.0   0.0 H        1 UNL1     0.0234
     108 H         2.762461   -2.046842   1.953855 H        1 UNL1     0.2098
     109 H         -0.145197   2.245568   2.404244 H        1 UNL1     0.0234
     110 H         0.658574   0.885289   1.557841 H        1 UNL1     0.0234
     111 H         -1.020605   1.205764   1.299969 H        1 UNL1     0.0234
     112 H         -1.961196   -3.150321   -0.155092 H        1 UNL1     0.0342
     113 H         -2.468641   -1.534572   -0.763444 H        1 UNL1     0.0342
     114 H         -1.131596   -1.678587   0.380908 H        1 UNL1     0.0342
     115 H         -0.330574   -4.277604   4.145285 H        1 UNL1     0.0234
     116 H         0.525422   -2.884239   4.813559 H        1 UNL1     0.0234
     117 H         -1.241354   -3.04758   4.88752 H        1 UNL1     0.0234
     118 H         2.200864   3.169342   4.788109 H        1 UNL1     0.0309
     119 H         3.194657   4.599518   4.369737 H        1 UNL1     0.0309
     120 H         2.259505   3.744812   3.162623 H        1 UNL1     0.0309
     121 H         0.994846   -0.745351   6.952959 H        1 UNL1     0.0524
     122 H         -0.692091   -0.802714   6.425882 H        1 UNL1     0.0524
     123 H         0.269498   -2.30183   6.467602 H        1 UNL1     0.0524
@<TRIPOS>BOND
     1     1     2    1
     2     1    42    1
     3     2     3    2
     4     3     4    1
     5     4     5    2
     6     5     7    1
     7     6    75    1
     8     6    76    1
     9     6    77    1
    10     7     9   am
    11     9    10    1
    12    10    11    2
    13    10    43    1
    14    11    14    1
    15    11    15    1
    16    12    13   ar
    17    12    27   ar
    18    12    43    1
    19    13    14    1
    20    13    30   ar
    21    14    17    2
    22    15    16    1
    23    16    17    1
    24    16    18    1
    25    16    22    1
    26    18    19    1
    27    19    20    1
    28    20    21    1
    29    21    22    1
    30    23    24    1
    31    23    88    1
    32    23    89    1
    33    24    25    1
    34    24    26    1
    35    24    90    1
    36    25    91    1
    37    25    92    1
    38    25    93    1
    39    26    94    1
    40    26    95    1
    41    26    96    1
    42    27    28   ar
    43    28    29   ar
    44    29    30   ar
    45    29    31    1
    46    30    33    1
    47    31    32    1
    48    32    33    1
    49    32    35    1
    50    34    97    1
    51    34    98    1
    52    34    99    1
    53    35    61    1
    54    36    37    1
    55    36    60    1
    56    37    38    1
    57    38    39    1
    58    39    40    1
    59    40    41    1
    60    41    42    1
    61    45   100    1
    62    47   101    1
    63    47   102    1
    64    47   103    1
    65    48   104    1
    66    49   105    1
    67    49   106    1
    68    49   107    1
    69    50   108    1
    70    51    59    1
    71    52   109    1
    72    52   110    1
    73    52   111    1
    74    53    54    1
    75    54    55    2
    76    54    56    1
    77    56   112    1
    78    56   113    1
    79    56   114    1
    80    57   115    1
    81    57   116    1
    82    57   117    1
    83    58   118    1
    84    58   119    1
    85    58   120    1
    86    59   121    1
    87    59   122    1
    88    59   123    1
    89    60    61    2
    90     1    47    1
    91     1    62    1
    92     2    63    1
    93     3    64    1
    94     4    65    1
    95     5     6    1
    96     7     8    2
    97     9    78    1
    98    15    79    1
    99    18    80    1
   100    18    81    1
   101    19    82    1
   102    19    83    1
   103    20    23    1
   104    21    84    1
   105    21    85    1
   106    22    86    1
   107    22    87    1
   108    27    45    1
   109    28    34    1
   110    32    58    1
   111    33    46    2
   112    36    51    1
   113    36    66    1
   114    37    52    1
   115    37    67    1
   116    38    53    1
   117    38    68    1
   118    42    48    1
   119    42    72    1
   120    43    44    2
   121    60    73    1
   122    61    74    1
   123    39    69    1
   124    39    57    1
   125    40    70    1
   126    40    50    1
   127    41    71    1
   128    41    49    1
