@<TRIPOS>MOLECULE
*****
 123 128 0 0 0
SMALL
GASTEIGER

@<TRIPOS>ATOM
     1 C         5.183721   1.674251   0.570261 C.3        1 UNL1     0.0009
     2 C         6.646455   2.454512   -0.25958 C.2        1 UNL1     -0.0787
     3 C         7.937776   2.333843   -0.90299 C.2        1 UNL1     -0.0649
     4 C         8.846231   3.551873   -1.64963 C.2        1 UNL1     -0.0542
     5 C         9.886218   3.824477   -2.57223 C.2        1 UNL1     0.0115
     6 C         11.019385   3.177872   -3.415532 C.3        1 UNL1     -0.0348
     7 C         10.013958   5.303009   -3.184289 C.2        1 UNL1     0.2441
     8 O         10.843547   6.114245   -2.79673 O.2        1 UNL1     -0.2702
     9 N         9.286783   5.51508   -4.368517 N.am        1 UNL1     -0.2772
     10 C         8.004882   5.922407   -4.078452 C.2        1 UNL1     0.1049
     11 C         7.139853   4.965198   -3.796146 C.2        1 UNL1     0.0801
     12 C         6.707041   7.555437   -2.697816 C.ar        1 UNL1     0.0753
     13 C         5.923751   6.441255   -2.257742 C.ar        1 UNL1     0.0305
     14 C         6.032015   5.130653   -2.89465 C.2        1 UNL1     0.0924
     15 N         7.245248   3.633741   -3.946622 N.pl3        1 UNL1     -0.3170
     16 C         5.961445   3.055151   -3.65109 C.3        1 UNL1     0.1275
     17 N         5.322956   4.02478   -2.68679 N.2        1 UNL1     -0.2557
     18 C         5.131028   3.120391   -4.929312 C.3        1 UNL1     0.0016
     19 C         5.894534   2.419343   -6.041598 C.3        1 UNL1     0.0026
     20 N         6.137479   1.039381   -5.644469 N.3        1 UNL1     -0.3018
     21 C         6.877324   0.874036   -4.391609 C.3        1 UNL1     0.0026
     22 C         6.090184   1.581827   -3.287372 C.3        1 UNL1     0.0016
     23 C         6.588344   0.207618   -6.742437 C.3        1 UNL1     0.0012
     24 C         5.446038   -0.029699   -7.742724 C.3        1 UNL1     -0.0339
     25 C         5.516395   0.955747   -8.920859 C.3        1 UNL1     -0.0615
     26 C         5.46176   -1.471942   -8.218611 C.3        1 UNL1     -0.0615
     27 C         6.512288   8.828797   -2.167965 C.ar        1 UNL1     0.1347
     28 C         5.541303   9.117522   -1.225694 C.ar        1 UNL1     0.0342
     29 C         4.815178   7.99602   -0.771668 C.ar        1 UNL1     0.1435
     30 C         5.023918   6.708283   -1.267029 C.ar        1 UNL1     0.0774
     31 O         3.761745   8.129454   0.063486 O.3        1 UNL1     -0.4436
     32 C         3.024209   6.906788   -0.084844 C.3        1 UNL1     0.3143
     33 C         4.031373   5.895992   -0.594867 C.2        1 UNL1     0.2504
     34 C         5.107576   10.492374   -0.799357 C.3        1 UNL1     -0.0327
     35 O         2.63492   6.482291   1.227219 O.2        1 UNL1     -0.4528
     36 C         -0.629511   4.596537   0.785054 C.3        1 UNL1     0.0854
     37 C         -0.938455   3.336023   -0.111149 C.3        1 UNL1     0.0236
     38 C         -1.571017   2.088131   0.672672 C.3        1 UNL1     0.1131
     39 C         -0.875343   1.553179   1.988778 C.3        1 UNL1     0.0200
     40 C         0.782555   1.383156   2.058806 C.3        1 UNL1     0.0661
     41 C         1.749898   0.594122   0.910206 C.3        1 UNL1     0.0091
     42 C         3.47199   0.928325   0.373448 C.3        1 UNL1     0.0661
     43 C         7.672647   7.327846   -3.801477 C.2        1 UNL1     0.2131
     44 O         8.097985   8.216157   -4.517527 O.2        1 UNL1     -0.2851
     45 O         7.347569   9.849328   -2.617699 O.3        1 UNL1     -0.5056
     46 O         4.027147   4.693043   -0.457931 O.2        1 UNL1     -0.2836
     47 C         5.549295   1.246354   2.017065 C.3        1 UNL1     -0.0566
     48 O         3.89795   -0.488856   0.46975 O.3        1 UNL1     -0.3909
     49 C         0.933361   0.367568   -0.342565 C.3        1 UNL1     -0.0577
     50 O         1.394194   2.593967   2.455739 O.3        1 UNL1     -0.3910
     51 O         -0.779877   4.415916   2.175089 O.3        1 UNL1     -0.3753
     52 C         0.122775   3.154083   -1.245009 C.3        1 UNL1     -0.0564
     53 O         -2.173832   1.053593   -0.232133 O.3        1 UNL1     -0.4608
     54 C         -2.433463   -0.247755   0.10994 C.2        1 UNL1     0.3042
     55 O         -1.871069   -1.257396   -0.31217 O.2        1 UNL1     -0.2512
     56 C         -3.495244   -0.392474   1.162741 C.3        1 UNL1     0.0332
     57 C         -1.607453   2.239331   3.234325 C.3        1 UNL1     -0.0567
     58 C         1.971241   7.162243   -1.188262 C.3        1 UNL1     0.0210
     59 C         -1.087838   5.603257   2.903956 C.3        1 UNL1     0.0372
     60 C         0.712449   5.20458   0.573898 C.2        1 UNL1     -0.0208
     61 C         1.617   5.63067   1.456496 C.2        1 UNL1     0.0882
     62 H         4.721175   2.665832   0.644615 H        1 UNL1     0.0365
     63 H         6.394267   3.512686   -0.163983 H        1 UNL1     0.0576
     64 H         8.384576   1.359163   -1.111497 H        1 UNL1     0.0615
     65 H         8.367119   4.476195   -1.315617 H        1 UNL1     0.0622
     66 H         -1.35757   5.352447   0.458595 H        1 UNL1     0.0645
     67 H         -1.788846   3.655067   -0.73853 H        1 UNL1     0.0362
     68 H         -2.517241   2.540861   1.006164 H        1 UNL1     0.0741
     69 H         -1.225206   0.548149   2.183506 H        1 UNL1     0.0359
     70 H         0.869561   0.7258   2.945019 H        1 UNL1     0.0600
     71 H         1.77099   -0.425358   1.342841 H        1 UNL1     0.0348
     72 H         3.356921   1.42311   1.348774 H        1 UNL1     0.0602
     73 H         0.850745   5.394691   -0.461466 H        1 UNL1     0.0628
     74 H         1.578267   5.425825   2.526906 H        1 UNL1     0.1022
     75 H         11.026446   2.069634   -3.278451 H        1 UNL1     0.0279
     76 H         10.938978   3.279831   -4.495443 H        1 UNL1     0.0279
     77 H         12.023428   3.447162   -3.056254 H        1 UNL1     0.0279
     78 H         9.220629   4.643447   -4.890012 H        1 UNL1     0.1553
     79 H         7.914354   3.192712   -4.550545 H        1 UNL1     0.1484
     80 H         4.159371   2.644825   -4.749072 H        1 UNL1     0.0317
     81 H         4.92456   4.158985   -5.209213 H        1 UNL1     0.0317
     82 H         6.837092   2.935449   -6.276399 H        1 UNL1     0.0428
     83 H         5.285401   2.479167   -6.944055 H        1 UNL1     0.0428
     84 H         6.976794   -0.168977   -4.075317 H        1 UNL1     0.0428
     85 H         7.914412   1.226159   -4.479777 H        1 UNL1     0.0428
     86 H         6.587419   1.32851   -2.369453 H        1 UNL1     0.0317
     87 H         5.101732   1.11947   -3.176539 H        1 UNL1     0.0317
     88 H         7.401203   0.734774   -7.25883 H        1 UNL1     0.0429
     89 H         7.00076   -0.742658   -6.379584 H        1 UNL1     0.0429
     90 H         4.486112   0.106278   -7.230606 H        1 UNL1     0.0308
     91 H         6.47758   0.888027   -9.439165 H        1 UNL1     0.0233
     92 H         4.710516   0.764301   -9.63326 H        1 UNL1     0.0233
     93 H         5.400327   1.998299   -8.600781 H        1 UNL1     0.0233
     94 H         4.779589   -1.597391   -9.066398 H        1 UNL1     0.0233
     95 H         6.467106   -1.744561   -8.551658 H        1 UNL1     0.0233
     96 H         5.155088   -2.157746   -7.423883 H        1 UNL1     0.0233
     97 H         4.295046   10.458428   -0.079724 H        1 UNL1     0.0280
     98 H         5.918133   11.049278   -0.31139 H        1 UNL1     0.0280
     99 H         4.76599   11.061132   -1.679657 H        1 UNL1     0.0280
     100 H         6.897328   10.605654   -2.950682 H        1 UNL1     0.2922
     101 H         4.668653   0.839705   2.513816 H        1 UNL1     0.0236
     102 H         6.01336   2.044325   2.595743 H        1 UNL1     0.0236
     103 H         6.284058   0.424117   2.032589 H        1 UNL1     0.0236
     104 H         4.295323   -0.618029   1.353141 H        1 UNL1     0.2098
     105 H         0.743882   1.266482   -0.923825 H        1 UNL1     0.0234
     106 H         1.301927   -0.42925   -0.98845 H        1 UNL1     0.0234
     107 H         0.0   -0.0   0.0 H        1 UNL1     0.0234
     108 H         1.232331   3.246567   1.747445 H        1 UNL1     0.2098
     109 H         1.140883   3.039712   -0.847408 H        1 UNL1     0.0234
     110 H         -0.1041   2.31935   -1.91694 H        1 UNL1     0.0234
     111 H         0.159432   4.027955   -1.90905 H        1 UNL1     0.0234
     112 H         -3.638437   -1.450137   1.403968 H        1 UNL1     0.0342
     113 H         -3.266361   0.184781   2.057298 H        1 UNL1     0.0342
     114 H         -4.439824   -0.009789   0.752271 H        1 UNL1     0.0342
     115 H         -2.681162   2.007194   3.255535 H        1 UNL1     0.0234
     116 H         -1.19149   1.958092   4.203824 H        1 UNL1     0.0234
     117 H         -1.628738   3.341372   3.179619 H        1 UNL1     0.0234
     118 H         1.070081   7.66323   -0.793384 H        1 UNL1     0.0309
     119 H         2.363157   7.741583   -2.030265 H        1 UNL1     0.0309
     120 H         1.577114   6.233992   -1.616187 H        1 UNL1     0.0309
     121 H         -0.243202   6.283507   2.798095 H        1 UNL1     0.0524
     122 H         -1.97971   6.11737   2.50862 H        1 UNL1     0.0524
     123 H         -1.251457   5.369095   3.952045 H        1 UNL1     0.0524
@<TRIPOS>BOND
     1     1     2    1
     2     1    42    1
     3     2     3    2
     4     3     4    1
     5     4     5    2
     6     5     7    1
     7     6    75    1
     8     6    76    1
     9     6    77    1
    10     7     9   am
    11     9    10    1
    12    10    11    2
    13    10    43    1
    14    11    14    1
    15    11    15    1
    16    12    13   ar
    17    12    27   ar
    18    12    43    1
    19    13    14    1
    20    13    30   ar
    21    14    17    2
    22    15    16    1
    23    16    17    1
    24    16    18    1
    25    16    22    1
    26    18    19    1
    27    19    20    1
    28    20    21    1
    29    21    22    1
    30    23    24    1
    31    23    88    1
    32    23    89    1
    33    24    25    1
    34    24    26    1
    35    24    90    1
    36    25    91    1
    37    25    92    1
    38    25    93    1
    39    26    94    1
    40    26    95    1
    41    26    96    1
    42    27    28   ar
    43    28    29   ar
    44    29    30   ar
    45    29    31    1
    46    30    33    1
    47    31    32    1
    48    32    33    1
    49    32    35    1
    50    34    97    1
    51    34    98    1
    52    34    99    1
    53    35    61    1
    54    36    37    1
    55    36    60    1
    56    37    38    1
    57    38    39    1
    58    39    40    1
    59    40    41    1
    60    41    42    1
    61    45   100    1
    62    47   101    1
    63    47   102    1
    64    47   103    1
    65    48   104    1
    66    49   105    1
    67    49   106    1
    68    49   107    1
    69    50   108    1
    70    51    59    1
    71    52   109    1
    72    52   110    1
    73    52   111    1
    74    53    54    1
    75    54    55    2
    76    54    56    1
    77    56   112    1
    78    56   113    1
    79    56   114    1
    80    57   115    1
    81    57   116    1
    82    57   117    1
    83    58   118    1
    84    58   119    1
    85    58   120    1
    86    59   121    1
    87    59   122    1
    88    59   123    1
    89    60    61    2
    90     1    47    1
    91     1    62    1
    92     2    63    1
    93     3    64    1
    94     4    65    1
    95     5     6    1
    96     7     8    2
    97     9    78    1
    98    15    79    1
    99    18    80    1
   100    18    81    1
   101    19    82    1
   102    19    83    1
   103    20    23    1
   104    21    84    1
   105    21    85    1
   106    22    86    1
   107    22    87    1
   108    27    45    1
   109    28    34    1
   110    32    58    1
   111    33    46    2
   112    36    51    1
   113    36    66    1
   114    37    52    1
   115    37    67    1
   116    38    53    1
   117    38    68    1
   118    42    48    1
   119    42    72    1
   120    43    44    2
   121    60    73    1
   122    61    74    1
   123    39    69    1
   124    39    57    1
   125    40    70    1
   126    40    50    1
   127    41    71    1
   128    41    49    1
