@<TRIPOS>MOLECULE
*****
 123 128 0 0 0
SMALL
GASTEIGER

@<TRIPOS>ATOM
     1 C         4.806969   1.807188   1.862075 C.3        1 UNL1     0.0009
     2 C         6.375605   2.685198   1.408734 C.2        1 UNL1     -0.0787
     3 C         7.795305   2.655285   1.126593 C.2        1 UNL1     -0.0649
     4 C         8.777185   3.927051   0.592853 C.2        1 UNL1     -0.0542
     5 C         9.999541   4.26363   -0.039316 C.2        1 UNL1     0.0115
     6 C         11.356951   3.693064   -0.534509 C.3        1 UNL1     -0.0348
     7 C         10.176013   5.735446   -0.655438 C.2        1 UNL1     0.2441
     8 O         10.815194   6.617581   -0.098832 O.2        1 UNL1     -0.2702
     9 N         9.769815   5.865824   -1.994899 N.am        1 UNL1     -0.2772
     10 C         8.430804   6.175303   -2.062681 C.2        1 UNL1     0.1049
     11 C         7.59317   5.1579   -1.976167 C.2        1 UNL1     0.0801
     12 C         6.703755   7.726312   -1.130475 C.ar        1 UNL1     0.0753
     13 C         5.914913   6.562048   -0.86434 C.ar        1 UNL1     0.0305
     14 C         6.279528   5.252089   -1.399236 C.2        1 UNL1     0.0924
     15 N         7.829571   3.836396   -2.041503 N.pl3        1 UNL1     -0.3170
     16 C         6.558143   3.163233   -2.065529 C.3        1 UNL1     0.1275
     17 N         5.622153   4.097499   -1.338347 N.2        1 UNL1     -0.2557
     18 C         6.087637   3.137221   -3.516615 C.3        1 UNL1     0.0016
     19 C         7.163299   2.47771   -4.364899 C.3        1 UNL1     0.0026
     20 N         7.392683   1.129479   -3.864213 N.3        1 UNL1     -0.3018
     21 C         7.789809   1.048015   -2.45708 C.3        1 UNL1     0.0026
     22 C         6.693012   1.712207   -1.622946 C.3        1 UNL1     0.0016
     23 C         8.173032   0.315066   -4.774394 C.3        1 UNL1     0.0012
     24 C         7.351484   -0.031922   -6.025959 C.3        1 UNL1     -0.0339
     25 C         7.701807   -1.4311   -6.558531 C.3        1 UNL1     -0.0615
     26 C         5.867922   0.09727   -5.727408 C.3        1 UNL1     -0.0615
     27 C         6.286496   8.990181   -0.719807 C.ar        1 UNL1     0.1347
     28 C         5.085098   9.21892   -0.07299 C.ar        1 UNL1     0.0342
     29 C         4.348173   8.052186   0.221688 C.ar        1 UNL1     0.1435
     30 C         4.770928   6.775775   -0.151504 C.ar        1 UNL1     0.0774
     31 O         3.10652   8.117504   0.74993 O.3        1 UNL1     -0.4436
     32 C         2.523083   6.837314   0.464293 C.3        1 UNL1     0.3143
     33 C         3.698381   5.900231   0.272561 C.2        1 UNL1     0.2504
     34 C         4.457511   10.562887   0.171935 C.3        1 UNL1     -0.0327
     35 O         1.836401   6.408771   1.646694 O.2        1 UNL1     -0.4528
     36 C         -1.055259   4.260704   0.44995 C.3        1 UNL1     0.0854
     37 C         -1.028202   2.962381   -0.445119 C.3        1 UNL1     0.0236
     38 C         -1.752048   1.683555   0.197062 C.3        1 UNL1     0.1131
     39 C         -1.387393   1.231441   1.668418 C.3        1 UNL1     0.0200
     40 C         0.202549   1.195429   2.171635 C.3        1 UNL1     0.0661
     41 C         1.490237   0.46376   1.344514 C.3        1 UNL1     0.0091
     42 C         3.264108   0.92358   1.25877 C.3        1 UNL1     0.0661
     43 C         7.937701   7.554931   -1.936865 C.2        1 UNL1     0.2131
     44 O         8.47021   8.460198   -2.553033 O.2        1 UNL1     -0.2851
     45 O         7.134637   10.065064   -0.978113 O.3        1 UNL1     -0.5056
     46 O         3.74501   4.703663   0.45118 O.2        1 UNL1     -0.2836
     47 C         4.812047   1.438015   3.369944 C.3        1 UNL1     -0.0566
     48 O         3.750859   -0.453019   1.517932 O.3        1 UNL1     -0.3909
     49 C         1.047417   0.148538   -0.066882 C.3        1 UNL1     -0.0577
     50 O         0.600759   2.458613   2.665109 O.3        1 UNL1     -0.3910
     51 O         -1.54981   4.095767   1.759776 O.3        1 UNL1     -0.3753
     52 C         0.3024   2.843528   -1.257721 C.3        1 UNL1     -0.0564
     53 O         -2.021883   0.586869   -0.791268 O.3        1 UNL1     -0.4608
     54 C         -1.9297   -0.75594   -0.53379 C.2        1 UNL1     0.3042
     55 O         -1.020378   -1.518147   -0.859386 O.2        1 UNL1     -0.2512
     56 C         -3.067649   -1.290094   0.288686 C.3        1 UNL1     0.0332
     57 C         -2.466539   1.881201   2.65403 C.3        1 UNL1     -0.0567
     58 C         1.779047   6.986549   -0.883175 C.3        1 UNL1     0.0210
     59 C         -2.83896   4.662492   1.989517 C.3        1 UNL1     0.0372
     60 C         0.248019   4.969496   0.569293 C.2        1 UNL1     -0.0208
     61 C         0.857839   5.483389   1.638301 C.2        1 UNL1     0.0882
     62 H         4.271039   2.760028   1.77498 H        1 UNL1     0.0365
     63 H         6.03185   3.721577   1.39393 H        1 UNL1     0.0576
     64 H         8.349873   1.715423   1.079469 H        1 UNL1     0.0615
     65 H         8.162374   4.816593   0.754739 H        1 UNL1     0.0622
     66 H         -1.725249   4.949714   -0.083364 H        1 UNL1     0.0645
     67 H         -1.706031   3.200394   -1.283247 H        1 UNL1     0.0362
     68 H         -2.782512   2.065871   0.256241 H        1 UNL1     0.0741
     69 H         -1.7028   0.205715   1.805573 H        1 UNL1     0.0359
     70 H         0.102252   0.564467   3.075453 H        1 UNL1     0.0600
     71 H         1.470883   -0.542185   1.807825 H        1 UNL1     0.0348
     72 H         2.863238   1.426515   2.150777 H        1 UNL1     0.0602
     73 H         0.637705   5.149832   -0.401723 H        1 UNL1     0.0628
     74 H         0.555911   5.296982   2.669479 H        1 UNL1     0.1022
     75 H         11.824069   3.053645   0.252878 H        1 UNL1     0.0279
     76 H         11.318052   3.021371   -1.389135 H        1 UNL1     0.0279
     77 H         12.123255   4.471227   -0.664661 H        1 UNL1     0.0279
     78 H         9.904862   4.981707   -2.48088 H        1 UNL1     0.1553
     79 H         8.663   3.438402   -2.433842 H        1 UNL1     0.1484
     80 H         5.139387   2.589358   -3.575233 H        1 UNL1     0.0317
     81 H         5.887302   4.150421   -3.881228 H        1 UNL1     0.0317
     82 H         8.094862   3.062596   -4.36807 H        1 UNL1     0.0428
     83 H         6.808136   2.471242   -5.395854 H        1 UNL1     0.0428
     84 H         7.877962   0.022595   -2.084851 H        1 UNL1     0.0428
     85 H         8.785888   1.479855   -2.287792 H        1 UNL1     0.0428
     86 H         6.950322   1.51722   -0.598368 H        1 UNL1     0.0317
     87 H         5.745759   1.17482   -1.753418 H        1 UNL1     0.0317
     88 H         9.052436   0.895152   -5.083334 H        1 UNL1     0.0429
     89 H         8.543631   -0.592092   -4.27993 H        1 UNL1     0.0429
     90 H         7.564276   0.703745   -6.810642 H        1 UNL1     0.0308
     91 H         7.738544   -2.166873   -5.749586 H        1 UNL1     0.0233
     92 H         6.971992   -1.754386   -7.304496 H        1 UNL1     0.0233
     93 H         8.678975   -1.456058   -7.055878 H        1 UNL1     0.0233
     94 H         5.286044   -0.496878   -6.440319 H        1 UNL1     0.0233
     95 H         5.654911   -0.278236   -4.722628 H        1 UNL1     0.0233
     96 H         5.536765   1.137459   -5.793068 H        1 UNL1     0.0233
     97 H         3.471003   10.639531   -0.275455 H        1 UNL1     0.0280
     98 H         4.318889   10.766083   1.241866 H        1 UNL1     0.0280
     99 H         5.094889   11.351971   -0.259564 H        1 UNL1     0.0280
     100 H         8.029413   9.928457   -0.720551 H        1 UNL1     0.2922
     101 H         4.155887   2.115099   3.916449 H        1 UNL1     0.0236
     102 H         5.812751   1.402961   3.7993 H        1 UNL1     0.0236
     103 H         4.392833   0.434367   3.551998 H        1 UNL1     0.0236
     104 H         3.00783   -1.065111   1.349942 H        1 UNL1     0.2098
     105 H         1.225141   0.947499   -0.782344 H        1 UNL1     0.0234
     106 H         1.416776   -0.7989   -0.459137 H        1 UNL1     0.0234
     107 H         0.0   -0.0   0.0 H        1 UNL1     0.0234
     108 H         1.5753   2.451333   2.728236 H        1 UNL1     0.2098
     109 H         0.448719   3.690553   -1.942449 H        1 UNL1     0.0234
     110 H         1.186633   2.729803   -0.621372 H        1 UNL1     0.0234
     111 H         0.311888   1.945434   -1.88961 H        1 UNL1     0.0234
     112 H         -2.922688   -2.358545   0.475085 H        1 UNL1     0.0342
     113 H         -3.189788   -0.743595   1.222637 H        1 UNL1     0.0342
     114 H         -3.994214   -1.171824   -0.289808 H        1 UNL1     0.0342
     115 H         -2.690157   1.223675   3.505407 H        1 UNL1     0.0234
     116 H         -2.171587   2.851926   3.057446 H        1 UNL1     0.0234
     117 H         -3.466786   1.990476   2.200702 H        1 UNL1     0.0234
     118 H         0.682862   6.943781   -0.75845 H        1 UNL1     0.0309
     119 H         2.04289   7.903032   -1.420433 H        1 UNL1     0.0309
     120 H         1.987271   6.160599   -1.572054 H        1 UNL1     0.0309
     121 H         -2.914206   4.890516   3.052391 H        1 UNL1     0.0524
     122 H         -2.986162   5.605136   1.436533 H        1 UNL1     0.0524
     123 H         -3.615364   3.959577   1.701074 H        1 UNL1     0.0524
@<TRIPOS>BOND
     1     1     2    1
     2     1    42    1
     3     2     3    2
     4     3     4    1
     5     4     5    2
     6     5     7    1
     7     6    75    1
     8     6    76    1
     9     6    77    1
    10     7     9   am
    11     9    10    1
    12    10    11    2
    13    10    43    1
    14    11    14    1
    15    11    15    1
    16    12    13   ar
    17    12    27   ar
    18    12    43    1
    19    13    14    1
    20    13    30   ar
    21    14    17    2
    22    15    16    1
    23    16    17    1
    24    16    18    1
    25    16    22    1
    26    18    19    1
    27    19    20    1
    28    20    21    1
    29    21    22    1
    30    23    24    1
    31    23    88    1
    32    23    89    1
    33    24    25    1
    34    24    26    1
    35    24    90    1
    36    25    91    1
    37    25    92    1
    38    25    93    1
    39    26    94    1
    40    26    95    1
    41    26    96    1
    42    27    28   ar
    43    28    29   ar
    44    29    30   ar
    45    29    31    1
    46    30    33    1
    47    31    32    1
    48    32    33    1
    49    32    35    1
    50    34    97    1
    51    34    98    1
    52    34    99    1
    53    35    61    1
    54    36    37    1
    55    36    60    1
    56    37    38    1
    57    38    39    1
    58    39    40    1
    59    40    41    1
    60    41    42    1
    61    45   100    1
    62    47   101    1
    63    47   102    1
    64    47   103    1
    65    48   104    1
    66    49   105    1
    67    49   106    1
    68    49   107    1
    69    50   108    1
    70    51    59    1
    71    52   109    1
    72    52   110    1
    73    52   111    1
    74    53    54    1
    75    54    55    2
    76    54    56    1
    77    56   112    1
    78    56   113    1
    79    56   114    1
    80    57   115    1
    81    57   116    1
    82    57   117    1
    83    58   118    1
    84    58   119    1
    85    58   120    1
    86    59   121    1
    87    59   122    1
    88    59   123    1
    89    60    61    2
    90     1    47    1
    91     1    62    1
    92     2    63    1
    93     3    64    1
    94     4    65    1
    95     5     6    1
    96     7     8    2
    97     9    78    1
    98    15    79    1
    99    18    80    1
   100    18    81    1
   101    19    82    1
   102    19    83    1
   103    20    23    1
   104    21    84    1
   105    21    85    1
   106    22    86    1
   107    22    87    1
   108    27    45    1
   109    28    34    1
   110    32    58    1
   111    33    46    2
   112    36    51    1
   113    36    66    1
   114    37    52    1
   115    37    67    1
   116    38    53    1
   117    38    68    1
   118    42    48    1
   119    42    72    1
   120    43    44    2
   121    60    73    1
   122    61    74    1
   123    39    69    1
   124    39    57    1
   125    40    70    1
   126    40    50    1
   127    41    71    1
   128    41    49    1
