@<TRIPOS>MOLECULE
*****
 123 128 0 0 0
SMALL
GASTEIGER

@<TRIPOS>ATOM
     1 C         0.218656   1.002676   3.996878 C.3        1 UNL1     0.0009
     2 C         -0.781208   0.315268   5.398583 C.2        1 UNL1     -0.0787
     3 C         -1.921511   0.397569   6.28683 C.2        1 UNL1     -0.0649
     4 C         -2.428899   -0.736831   7.436635 C.2        1 UNL1     -0.0542
     5 C         -3.519201   -1.186173   8.221752 C.2        1 UNL1     0.0115
     6 C         -4.961304   -0.8404   8.684467 C.3        1 UNL1     -0.0348
     7 C         -3.463644   -2.659068   8.857744 C.2        1 UNL1     0.2441
     8 O         -3.197589   -2.866529   10.033626 O.2        1 UNL1     -0.2702
     9 N         -3.994613   -3.673289   8.041914 N.am        1 UNL1     -0.2772
     10 C         -3.023548   -4.174804   7.205949 C.2        1 UNL1     0.1049
     11 C         -2.799521   -3.491465   6.098212 C.2        1 UNL1     0.0801
     12 C         -0.679243   -5.047289   7.187627 C.ar        1 UNL1     0.0753
     13 C         -0.429947   -4.13109   6.116628 C.ar        1 UNL1     0.0305
     14 C         -1.517764   -3.418043   5.450843 C.2        1 UNL1     0.0924
     15 N         -3.507142   -2.494102   5.540478 N.pl3        1 UNL1     -0.3170
     16 C         -2.931127   -2.213729   4.252125 C.3        1 UNL1     0.1275
     17 N         -1.483302   -2.616962   4.389708 N.2        1 UNL1     -0.2557
     18 C         -3.550274   -3.191139   3.257625 C.3        1 UNL1     0.0016
     19 C         -5.06296   -3.048805   3.313405 C.3        1 UNL1     0.0026
     20 N         -5.415849   -1.674282   2.986016 N.3        1 UNL1     -0.3018
     21 C         -4.816933   -0.655743   3.851029 C.3        1 UNL1     0.0026
     22 C         -3.297324   -0.814114   3.776179 C.3        1 UNL1     0.0016
     23 C         -6.830036   -1.503557   2.718489 C.3        1 UNL1     0.0012
     24 C         -7.210849   -2.170972   1.387589 C.3        1 UNL1     -0.0339
     25 C         -8.321925   -1.391405   0.665204 C.3        1 UNL1     -0.0615
     26 C         -5.97924   -2.32866   0.512915 C.3        1 UNL1     -0.0615
     27 C         0.346974   -5.812928   7.736074 C.ar        1 UNL1     0.1347
     28 C         1.649893   -5.778173   7.272128 C.ar        1 UNL1     0.0342
     29 C         1.881698   -4.833335   6.250016 C.ar        1 UNL1     0.1435
     30 C         0.87084   -4.033582   5.71543 C.ar        1 UNL1     0.0774
     31 O         3.07323   -4.756816   5.618034 O.3        1 UNL1     -0.4436
     32 C         2.78939   -4.067631   4.391114 C.3        1 UNL1     0.3143
     33 C         1.521335   -3.283326   4.661515 C.2        1 UNL1     0.2504
     34 C         2.742015   -6.744522   7.637556 C.3        1 UNL1     -0.0327
     35 O         3.836458   -3.110745   4.187968 O.2        1 UNL1     -0.4528
     36 C         4.182285   -2.729217   0.427259 C.3        1 UNL1     0.0854
     37 C         3.095353   -2.309493   -0.635724 C.3        1 UNL1     0.0236
     38 C         3.496538   -1.057849   -1.554518 C.3        1 UNL1     0.1131
     39 C         4.015571   0.276082   -0.881094 C.3        1 UNL1     0.0200
     40 C         3.25904   0.88847   0.473557 C.3        1 UNL1     0.0661
     41 C         1.59033   1.134319   0.654041 C.3        1 UNL1     0.0091
     42 C         0.526502   1.030078   2.144949 C.3        1 UNL1     0.0661
     43 C         -2.083455   -5.220911   7.63518 C.2        1 UNL1     0.2131
     44 O         -2.483747   -6.205794   8.228904 O.2        1 UNL1     -0.2851
     45 O         0.028658   -6.646653   8.806128 O.3        1 UNL1     -0.5056
     46 O         1.143914   -2.257899   4.140068 O.2        1 UNL1     -0.2836
     47 C         1.033225   2.236675   4.469851 C.3        1 UNL1     -0.0566
     48 O         -0.163113   2.316413   1.882479 O.3        1 UNL1     -0.3909
     49 C         0.866768   0.405306   -0.456136 C.3        1 UNL1     -0.0577
     50 O         3.79249   0.312566   1.648925 O.3        1 UNL1     -0.3910
     51 O         5.28334   -1.858752   0.559159 O.3        1 UNL1     -0.3753
     52 C         1.642754   -2.510538   -0.093056 C.3        1 UNL1     -0.0564
     53 O         2.626245   -0.899381   -2.766873 O.3        1 UNL1     -0.4608
     54 C         2.862946   -0.041461   -3.808927 C.2        1 UNL1     0.3042
     55 O         2.314653   1.03825   -4.026731 O.2        1 UNL1     -0.2512
     56 C         3.963575   -0.49655   -4.724472 C.3        1 UNL1     0.0332
     57 C         5.614258   0.227426   -0.88401 C.3        1 UNL1     -0.0567
     58 C         2.486447   -5.157858   3.336998 C.3        1 UNL1     0.0210
     59 C         6.223782   -2.230127   1.565895 C.3        1 UNL1     0.0372
     60 C         3.659348   -2.970873   1.799593 C.2        1 UNL1     -0.0208
     61 C         4.129665   -2.580667   2.98504 C.2        1 UNL1     0.0882
     62 H         0.887795   0.137314   4.075069 H        1 UNL1     0.0365
     63 H         -0.162425   -0.535263   5.692136 H        1 UNL1     0.0576
     64 H         -2.683564   1.171323   6.169834 H        1 UNL1     0.0615
     65 H         -1.572856   -1.410039   7.533931 H        1 UNL1     0.0622
     66 H         4.555591   -3.699951   0.071782 H        1 UNL1     0.0645
     67 H         3.106503   -3.133457   -1.370244 H        1 UNL1     0.0362
     68 H         4.370128   -1.482327   -2.072379 H        1 UNL1     0.0741
     69 H         3.919479   1.085377   -1.592583 H        1 UNL1     0.0359
     70 H         3.65891   1.920504   0.465128 H        1 UNL1     0.0600
     71 H         1.511525   2.184698   0.311328 H        1 UNL1     0.0348
     72 H         1.555673   1.146998   2.514343 H        1 UNL1     0.0602
     73 H         2.850002   -3.656203   1.749281 H        1 UNL1     0.0628
     74 H         4.916302   -1.837958   3.122241 H        1 UNL1     0.1022
     75 H         -5.018171   0.219562   9.031282 H        1 UNL1     0.0279
     76 H         -5.737522   -0.879875   7.923549 H        1 UNL1     0.0279
     77 H         -5.257381   -1.382456   9.594529 H        1 UNL1     0.0279
     78 H         -4.734115   -3.289741   7.457016 H        1 UNL1     0.1553
     79 H         -4.467105   -2.301629   5.760383 H        1 UNL1     0.1484
     80 H         -3.16419   -2.973153   2.254536 H        1 UNL1     0.0317
     81 H         -3.258969   -4.221414   3.488549 H        1 UNL1     0.0317
     82 H         -5.46299   -3.336675   4.296777 H        1 UNL1     0.0428
     83 H         -5.484266   -3.755812   2.598079 H        1 UNL1     0.0428
     84 H         -5.033082   0.369767   3.535719 H        1 UNL1     0.0428
     85 H         -5.209144   -0.707969   4.876095 H        1 UNL1     0.0428
     86 H         -2.892091   0.024737   4.311065 H        1 UNL1     0.0317
     87 H         -2.95362   -0.649345   2.747678 H        1 UNL1     0.0317
     88 H         -7.391682   -1.990015   3.5267 H        1 UNL1     0.0429
     89 H         -7.111756   -0.442721   2.724357 H        1 UNL1     0.0429
     90 H         -7.569845   -3.187907   1.585525 H        1 UNL1     0.0308
     91 H         -8.114358   -0.317172   0.658682 H        1 UNL1     0.0233
     92 H         -8.433107   -1.741445   -0.363737 H        1 UNL1     0.0233
     93 H         -9.301445   -1.523264   1.140587 H        1 UNL1     0.0233
     94 H         -6.272406   -2.428195   -0.53779 H        1 UNL1     0.0233
     95 H         -5.341545   -1.444778   0.6027 H        1 UNL1     0.0233
     96 H         -5.399788   -3.212134   0.795188 H        1 UNL1     0.0233
     97 H         3.175207   -6.521811   8.60811 H        1 UNL1     0.0280
     98 H         2.376111   -7.777604   7.70168 H        1 UNL1     0.0280
     99 H         3.54373   -6.698139   6.882443 H        1 UNL1     0.0280
     100 H         -0.591867   -7.324452   8.603248 H        1 UNL1     0.2922
     101 H         2.080086   1.960502   4.594221 H        1 UNL1     0.0236
     102 H         0.624005   2.702741   5.365565 H        1 UNL1     0.0236
     103 H         1.043606   3.04027   3.714654 H        1 UNL1     0.0236
     104 H         0.501404   2.941093   1.531533 H        1 UNL1     0.2098
     105 H         0.544372   1.042171   -1.276059 H        1 UNL1     0.0234
     106 H         1.388258   -0.470985   -0.84096 H        1 UNL1     0.0234
     107 H         0.0   -0.0   0.0 H        1 UNL1     0.0234
     108 H         3.178396   0.521676   2.378946 H        1 UNL1     0.2098
     109 H         0.947384   -1.749524   -0.473885 H        1 UNL1     0.0234
     110 H         1.241236   -3.508889   -0.297559 H        1 UNL1     0.0234
     111 H         1.604381   -2.427207   1.001261 H        1 UNL1     0.0234
     112 H         4.115063   0.240192   -5.51921 H        1 UNL1     0.0342
     113 H         4.891029   -0.687381   -4.186648 H        1 UNL1     0.0342
     114 H         3.65121   -1.439336   -5.19431 H        1 UNL1     0.0342
     115 H         6.053094   1.228077   -0.999373 H        1 UNL1     0.0234
     116 H         6.046451   -0.219161   0.013663 H        1 UNL1     0.0234
     117 H         6.036938   -0.292983   -1.760627 H        1 UNL1     0.0234
     118 H         3.385605   -5.439244   2.761373 H        1 UNL1     0.0309
     119 H         2.040201   -6.059793   3.767786 H        1 UNL1     0.0309
     120 H         1.789635   -4.813896   2.564826 H        1 UNL1     0.0309
     121 H         6.731757   -1.323358   1.893137 H        1 UNL1     0.0524
     122 H         5.736832   -2.675163   2.449558 H        1 UNL1     0.0524
     123 H         6.942991   -2.938886   1.165278 H        1 UNL1     0.0524
@<TRIPOS>BOND
     1     1     2    1
     2     1    42    1
     3     2     3    2
     4     3     4    1
     5     4     5    2
     6     5     7    1
     7     6    75    1
     8     6    76    1
     9     6    77    1
    10     7     9   am
    11     9    10    1
    12    10    11    2
    13    10    43    1
    14    11    14    1
    15    11    15    1
    16    12    13   ar
    17    12    27   ar
    18    12    43    1
    19    13    14    1
    20    13    30   ar
    21    14    17    2
    22    15    16    1
    23    16    17    1
    24    16    18    1
    25    16    22    1
    26    18    19    1
    27    19    20    1
    28    20    21    1
    29    21    22    1
    30    23    24    1
    31    23    88    1
    32    23    89    1
    33    24    25    1
    34    24    26    1
    35    24    90    1
    36    25    91    1
    37    25    92    1
    38    25    93    1
    39    26    94    1
    40    26    95    1
    41    26    96    1
    42    27    28   ar
    43    28    29   ar
    44    29    30   ar
    45    29    31    1
    46    30    33    1
    47    31    32    1
    48    32    33    1
    49    32    35    1
    50    34    97    1
    51    34    98    1
    52    34    99    1
    53    35    61    1
    54    36    37    1
    55    36    60    1
    56    37    38    1
    57    38    39    1
    58    39    40    1
    59    40    41    1
    60    41    42    1
    61    45   100    1
    62    47   101    1
    63    47   102    1
    64    47   103    1
    65    48   104    1
    66    49   105    1
    67    49   106    1
    68    49   107    1
    69    50   108    1
    70    51    59    1
    71    52   109    1
    72    52   110    1
    73    52   111    1
    74    53    54    1
    75    54    55    2
    76    54    56    1
    77    56   112    1
    78    56   113    1
    79    56   114    1
    80    57   115    1
    81    57   116    1
    82    57   117    1
    83    58   118    1
    84    58   119    1
    85    58   120    1
    86    59   121    1
    87    59   122    1
    88    59   123    1
    89    60    61    2
    90     1    47    1
    91     1    62    1
    92     2    63    1
    93     3    64    1
    94     4    65    1
    95     5     6    1
    96     7     8    2
    97     9    78    1
    98    15    79    1
    99    18    80    1
   100    18    81    1
   101    19    82    1
   102    19    83    1
   103    20    23    1
   104    21    84    1
   105    21    85    1
   106    22    86    1
   107    22    87    1
   108    27    45    1
   109    28    34    1
   110    32    58    1
   111    33    46    2
   112    36    51    1
   113    36    66    1
   114    37    52    1
   115    37    67    1
   116    38    53    1
   117    38    68    1
   118    42    48    1
   119    42    72    1
   120    43    44    2
   121    60    73    1
   122    61    74    1
   123    39    69    1
   124    39    57    1
   125    40    70    1
   126    40    50    1
   127    41    71    1
   128    41    49    1
