@<TRIPOS>MOLECULE
*****
 123 128 0 0 0
SMALL
GASTEIGER

@<TRIPOS>ATOM
     1 C         5.167192   1.748517   0.49202 C.3        1 UNL1     0.0009
     2 C         6.603879   2.554991   -0.358019 C.2        1 UNL1     -0.0787
     3 C         7.885749   2.457089   -1.023805 C.2        1 UNL1     -0.0649
     4 C         8.763202   3.692542   -1.778848 C.2        1 UNL1     -0.0542
     5 C         9.783221   3.985597   -2.717335 C.2        1 UNL1     0.0115
     6 C         10.911403   3.360528   -3.583255 C.3        1 UNL1     -0.0348
     7 C         9.878568   5.469123   -3.323179 C.2        1 UNL1     0.2441
     8 O         10.702465   6.290593   -2.945147 O.2        1 UNL1     -0.2702
     9 N         9.128336   5.676622   -4.493754 N.am        1 UNL1     -0.2772
     10 C         7.845629   6.063176   -4.179812 C.2        1 UNL1     0.1049
     11 C         6.999836   5.091642   -3.888303 C.2        1 UNL1     0.0801
     12 C         6.547269   7.66921   -2.768341 C.ar        1 UNL1     0.0753
     13 C         5.788204   6.541103   -2.321348 C.ar        1 UNL1     0.0305
     14 C         5.905115   5.23569   -2.967319 C.2        1 UNL1     0.0924
     15 N         7.12244   3.762734   -4.047987 N.pl3        1 UNL1     -0.3170
     16 C         5.852578   3.163437   -3.734065 C.3        1 UNL1     0.1275
     17 N         5.216199   4.11824   -2.75371 N.2        1 UNL1     -0.2557
     18 C         4.999716   3.223081   -4.997699 C.3        1 UNL1     0.0016
     19 C         5.754577   2.539485   -6.126624 C.3        1 UNL1     0.0026
     20 N         6.024708   1.161208   -5.741383 N.3        1 UNL1     -0.3018
     21 C         6.788077   1.000252   -4.502138 C.3        1 UNL1     0.0026
     22 C         6.009352   1.69028   -3.380825 C.3        1 UNL1     0.0016
     23 C         6.469194   0.342161   -6.851446 C.3        1 UNL1     0.0012
     24 C         5.313734   0.093136   -7.833616 C.3        1 UNL1     -0.0339
     25 C         5.34944   1.085808   -9.007236 C.3        1 UNL1     -0.0615
     26 C         5.342815   -1.346146   -8.317766 C.3        1 UNL1     -0.0615
     27 C         6.342629   8.936666   -2.228158 C.ar        1 UNL1     0.1347
     28 C         5.383585   9.205797   -1.268026 C.ar        1 UNL1     0.0342
     29 C         4.682017   8.071149   -0.80809 C.ar        1 UNL1     0.1435
     30 C         4.901439   6.789345   -1.314105 C.ar        1 UNL1     0.0774
     31 O         3.641038   8.184348   0.045465 O.3        1 UNL1     -0.4436
     32 C         2.919345   6.951599   -0.097233 C.3        1 UNL1     0.3143
     33 C         3.932623   5.958719   -0.629837 C.2        1 UNL1     0.2504
     34 C         4.936768   10.57171   -0.826739 C.3        1 UNL1     -0.0327
     35 O         2.558724   6.514321   1.218819 O.2        1 UNL1     -0.4528
     36 C         -0.68435   4.582346   0.821286 C.3        1 UNL1     0.0854
     37 C         -0.989685   3.322161   -0.076615 C.3        1 UNL1     0.0236
     38 C         -1.590241   2.060777   0.710778 C.3        1 UNL1     0.1131
     39 C         -0.864465   1.529263   2.011936 C.3        1 UNL1     0.0200
     40 C         0.796726   1.383681   2.053009 C.3        1 UNL1     0.0661
     41 C         1.756065   0.615353   0.883842 C.3        1 UNL1     0.0091
     42 C         3.463645   0.978137   0.319964 C.3        1 UNL1     0.0661
     43 C         7.497287   7.461988   -3.889405 C.2        1 UNL1     0.2131
     44 O         7.897167   8.360376   -4.607551 O.2        1 UNL1     -0.2851
     45 O         7.154899   9.971964   -2.686212 O.3        1 UNL1     -0.5056
     46 O         3.948601   4.755127   -0.499585 O.2        1 UNL1     -0.2836
     47 C         5.563579   1.318409   1.930028 C.3        1 UNL1     -0.0566
     48 O         3.912194   -0.433009   0.401126 O.3        1 UNL1     -0.3909
     49 C         0.921849   0.383311   -0.356212 C.3        1 UNL1     -0.0577
     50 O         1.396948   2.601365   2.44633 O.3        1 UNL1     -0.3910
     51 O         -0.808411   4.39207   2.212629 O.3        1 UNL1     -0.3753
     52 C         0.054742   3.162176   -1.229231 C.3        1 UNL1     -0.0564
     53 O         -2.192877   1.02219   -0.189496 O.3        1 UNL1     -0.4608
     54 C         -2.427296   -0.284705   0.149622 C.2        1 UNL1     0.3042
     55 O         -1.858221   -1.283653   -0.288663 O.2        1 UNL1     -0.2512
     56 C         -3.467292   -0.450799   1.220853 C.3        1 UNL1     0.0332
     57 C         -1.585455   2.197721   3.273487 C.3        1 UNL1     -0.0567
     58 C         1.844128   7.197172   -1.181268 C.3        1 UNL1     0.0210
     59 C         -1.121575   5.57076   2.953226 C.3        1 UNL1     0.0372
     60 C         0.644649   5.211511   0.59091 C.2        1 UNL1     -0.0208
     61 C         1.557611   5.646358   1.46048 C.2        1 UNL1     0.0882
     62 H         4.691288   2.732659   0.579722 H        1 UNL1     0.0365
     63 H         6.337649   3.608749   -0.252256 H        1 UNL1     0.0576
     64 H         8.343384   1.490328   -1.245278 H        1 UNL1     0.0615
     65 H         8.276141   4.607797   -1.431625 H        1 UNL1     0.0622
     66 H         -1.428998   5.329018   0.511403 H        1 UNL1     0.0645
     67 H         -1.855245   3.6318   -0.687753 H        1 UNL1     0.0362
     68 H         -2.537295   2.497516   1.062728 H        1 UNL1     0.0741
     69 H         -1.195997   0.518086   2.206915 H        1 UNL1     0.0359
     70 H         0.908516   0.722972   2.933934 H        1 UNL1     0.0600
     71 H         1.799644   -0.405995   1.310347 H        1 UNL1     0.0348
     72 H         3.357798   1.465926   1.299848 H        1 UNL1     0.0602
     73 H         0.762518   5.4092   -0.445562 H        1 UNL1     0.0628
     74 H         1.540092   5.435239   2.530228 H        1 UNL1     0.1022
     75 H         10.955871   2.255183   -3.43071 H        1 UNL1     0.0279
     76 H         10.797741   3.443777   -4.661782 H        1 UNL1     0.0279
     77 H         11.916492   3.665078   -3.256535 H        1 UNL1     0.0279
     78 H         9.066307   4.806897   -5.018929 H        1 UNL1     0.1553
     79 H         7.787686   3.334994   -4.66558 H        1 UNL1     0.1484
     80 H         4.038433   2.73208   -4.803744 H        1 UNL1     0.0317
     81 H         4.773116   4.259953   -5.268256 H        1 UNL1     0.0317
     82 H         6.685241   3.070877   -6.374413 H        1 UNL1     0.0428
     83 H         5.129399   2.595016   -7.018318 H        1 UNL1     0.0428
     84 H         6.90839   -0.042832   -4.193414 H        1 UNL1     0.0428
     85 H         7.818173   1.368313   -4.605831 H        1 UNL1     0.0428
     86 H         6.525799   1.439525   -2.472864 H        1 UNL1     0.0317
     87 H         5.029904   1.212606   -3.255908 H        1 UNL1     0.0317
     88 H         7.265249   0.884168   -7.378531 H        1 UNL1     0.0429
     89 H         6.901784   -0.603766   -6.500932 H        1 UNL1     0.0429
     90 H         4.36072   0.212003   -7.30461 H        1 UNL1     0.0308
     91 H         6.302593   1.035241   -9.542068 H        1 UNL1     0.0233
     92 H         4.534524   0.886141   -9.70699 H        1 UNL1     0.0233
     93 H         5.223336   2.124781   -8.679414 H        1 UNL1     0.0233
     94 H         4.648299   -1.47725   -9.154602 H        1 UNL1     0.0233
     95 H         6.346307   -1.601914   -8.66926 H        1 UNL1     0.0233
     96 H         5.059897   -2.040698   -7.521824 H        1 UNL1     0.0233
     97 H         4.137157   10.52177   -0.093691 H        1 UNL1     0.0280
     98 H         5.74712   11.138058   -0.349417 H        1 UNL1     0.0280
     99 H         4.57188   11.139992   -1.697949 H        1 UNL1     0.0280
     100 H         6.687882   10.72324   -3.007307 H        1 UNL1     0.2922
     101 H         4.700775   0.884571   2.435013 H        1 UNL1     0.0236
     102 H         6.014389   2.123506   2.509315 H        1 UNL1     0.0236
     103 H         6.319817   0.51573   1.928569 H        1 UNL1     0.0236
     104 H         4.331437   -0.559461   1.274748 H        1 UNL1     0.2098
     105 H         0.709196   1.282385   -0.92915 H        1 UNL1     0.0234
     106 H         1.291206   -0.404442   -1.012678 H        1 UNL1     0.0234
     107 H         0.0   -0.0   0.0 H        1 UNL1     0.0234
     108 H         1.198984   3.259725   1.752687 H        1 UNL1     0.2098
     109 H         1.079588   3.048529   -0.849116 H        1 UNL1     0.0234
     110 H         -0.177732   2.335362   -1.908993 H        1 UNL1     0.0234
     111 H         0.075925   4.045261   -1.881656 H        1 UNL1     0.0234
     112 H         -3.599663   -1.512637   1.449598 H        1 UNL1     0.0342
     113 H         -3.224135   0.11499   2.118963 H        1 UNL1     0.0342
     114 H         -4.421944   -0.067961   0.834535 H        1 UNL1     0.0342
     115 H         -2.655081   1.949442   3.311523 H        1 UNL1     0.0234
     116 H         -1.14897   1.917556   4.234236 H        1 UNL1     0.0234
     117 H         -1.624042   3.299598   3.225317 H        1 UNL1     0.0234
     118 H         0.943073   7.683917   -0.768732 H        1 UNL1     0.0309
     119 H         2.213476   7.785502   -2.02723 H        1 UNL1     0.0309
     120 H         1.455532   6.265393   -1.606578 H        1 UNL1     0.0309
     121 H         -0.300522   6.273973   2.816404 H        1 UNL1     0.0524
     122 H         -2.041377   6.059963   2.591726 H        1 UNL1     0.0524
     123 H         -1.239515   5.332584   4.006533 H        1 UNL1     0.0524
@<TRIPOS>BOND
     1     1     2    1
     2     1    42    1
     3     2     3    2
     4     3     4    1
     5     4     5    2
     6     5     7    1
     7     6    75    1
     8     6    76    1
     9     6    77    1
    10     7     9   am
    11     9    10    1
    12    10    11    2
    13    10    43    1
    14    11    14    1
    15    11    15    1
    16    12    13   ar
    17    12    27   ar
    18    12    43    1
    19    13    14    1
    20    13    30   ar
    21    14    17    2
    22    15    16    1
    23    16    17    1
    24    16    18    1
    25    16    22    1
    26    18    19    1
    27    19    20    1
    28    20    21    1
    29    21    22    1
    30    23    24    1
    31    23    88    1
    32    23    89    1
    33    24    25    1
    34    24    26    1
    35    24    90    1
    36    25    91    1
    37    25    92    1
    38    25    93    1
    39    26    94    1
    40    26    95    1
    41    26    96    1
    42    27    28   ar
    43    28    29   ar
    44    29    30   ar
    45    29    31    1
    46    30    33    1
    47    31    32    1
    48    32    33    1
    49    32    35    1
    50    34    97    1
    51    34    98    1
    52    34    99    1
    53    35    61    1
    54    36    37    1
    55    36    60    1
    56    37    38    1
    57    38    39    1
    58    39    40    1
    59    40    41    1
    60    41    42    1
    61    45   100    1
    62    47   101    1
    63    47   102    1
    64    47   103    1
    65    48   104    1
    66    49   105    1
    67    49   106    1
    68    49   107    1
    69    50   108    1
    70    51    59    1
    71    52   109    1
    72    52   110    1
    73    52   111    1
    74    53    54    1
    75    54    55    2
    76    54    56    1
    77    56   112    1
    78    56   113    1
    79    56   114    1
    80    57   115    1
    81    57   116    1
    82    57   117    1
    83    58   118    1
    84    58   119    1
    85    58   120    1
    86    59   121    1
    87    59   122    1
    88    59   123    1
    89    60    61    2
    90     1    47    1
    91     1    62    1
    92     2    63    1
    93     3    64    1
    94     4    65    1
    95     5     6    1
    96     7     8    2
    97     9    78    1
    98    15    79    1
    99    18    80    1
   100    18    81    1
   101    19    82    1
   102    19    83    1
   103    20    23    1
   104    21    84    1
   105    21    85    1
   106    22    86    1
   107    22    87    1
   108    27    45    1
   109    28    34    1
   110    32    58    1
   111    33    46    2
   112    36    51    1
   113    36    66    1
   114    37    52    1
   115    37    67    1
   116    38    53    1
   117    38    68    1
   118    42    48    1
   119    42    72    1
   120    43    44    2
   121    60    73    1
   122    61    74    1
   123    39    69    1
   124    39    57    1
   125    40    70    1
   126    40    50    1
   127    41    71    1
   128    41    49    1
