@<TRIPOS>MOLECULE
*****
 123 128 0 0 0
SMALL
GASTEIGER

@<TRIPOS>ATOM
     1 C         3.754182   1.498505   -0.924858 C.3        1 UNL1     0.0009
     2 C         4.147303   2.978279   -1.970211 C.2        1 UNL1     -0.0787
     3 C         4.557076   3.548734   -3.236194 C.2        1 UNL1     -0.0649
     4 C         4.634374   5.185038   -3.663854 C.2        1 UNL1     -0.0542
     5 C         4.669769   6.102715   -4.7426 C.2        1 UNL1     0.0115
     6 C         4.823864   6.225292   -6.283559 C.3        1 UNL1     -0.0348
     7 C         4.313841   7.643094   -4.464142 C.2        1 UNL1     0.2441
     8 O         5.165575   8.515824   -4.367099 O.2        1 UNL1     -0.2702
     9 N         2.952488   7.966689   -4.598888 N.am        1 UNL1     -0.2772
     10 C         2.291613   7.768197   -3.40844 C.2        1 UNL1     0.1049
     11 C         1.905154   6.530685   -3.156574 C.2        1 UNL1     0.0801
     12 C         2.421231   8.266898   -0.960618 C.ar        1 UNL1     0.0753
     13 C         2.205415   6.868629   -0.744111 C.ar        1 UNL1     0.0305
     14 C         1.809405   5.977974   -1.832671 C.2        1 UNL1     0.0924
     15 N         1.862867   5.457536   -3.964715 N.pl3        1 UNL1     -0.3170
     16 C         1.201644   4.3967   -3.252209 C.3        1 UNL1     0.1275
     17 N         1.474414   4.691326   -1.797384 N.2        1 UNL1     -0.2557
     18 C         -0.299317   4.587039   -3.448646 C.3        1 UNL1     0.0016
     19 C         -0.594221   4.620827   -4.93978 C.3        1 UNL1     0.0026
     20 N         -0.142363   3.370525   -5.53442 N.3        1 UNL1     -0.3018
     21 C         1.277969   3.069152   -5.344159 C.3        1 UNL1     0.0026
     22 C         1.550889   3.035533   -3.839407 C.3        1 UNL1     0.0016
     23 C         -0.640424   3.174208   -6.881282 C.3        1 UNL1     0.0012
     24 C         -1.768408   4.171522   -7.189134 C.3        1 UNL1     -0.0339
     25 C         -1.546241   4.872562   -8.539408 C.3        1 UNL1     -0.0615
     26 C         -3.113552   3.46805   -7.13916 C.3        1 UNL1     -0.0615
     27 C         2.679845   9.13022   0.101414 C.ar        1 UNL1     0.1347
     28 C         2.707632   8.720047   1.422412 C.ar        1 UNL1     0.0342
     29 C         2.540984   7.331061   1.607099 C.ar        1 UNL1     0.1435
     30 C         2.317089   6.448603   0.549574 C.ar        1 UNL1     0.0774
     31 O         2.433722   6.792062   2.841191 O.3        1 UNL1     -0.4436
     32 C         1.818454   5.512986   2.626058 C.3        1 UNL1     0.3143
     33 C         2.129227   5.161213   1.185264 C.2        1 UNL1     0.2504
     34 C         2.727874   9.621554   2.625315 C.3        1 UNL1     -0.0327
     35 O         2.511201   4.563756   3.446008 O.2        1 UNL1     -0.4528
     36 C         -0.044378   1.905445   4.34628 C.3        1 UNL1     0.0854
     37 C         -0.914406   0.996987   3.394819 C.3        1 UNL1     0.0236
     38 C         -0.776442   -0.579623   3.653689 C.3        1 UNL1     0.1131
     39 C         0.658875   -1.24029   3.72887 C.3        1 UNL1     0.0200
     40 C         1.840267   -0.821861   2.628111 C.3        1 UNL1     0.0661
     41 C         1.657552   -0.78005   0.942147 C.3        1 UNL1     0.0091
     42 C         2.440521   0.30466   -0.313149 C.3        1 UNL1     0.0661
     43 C         2.271933   8.782647   -2.344082 C.2        1 UNL1     0.2131
     44 O         2.041093   9.94914   -2.606274 O.2        1 UNL1     -0.2851
     45 O         2.923765   10.468567   -0.199864 O.3        1 UNL1     -0.5056
     46 O         2.22277   4.064635   0.680665 O.2        1 UNL1     -0.2836
     47 C         5.060284   0.769814   -0.508819 C.3        1 UNL1     -0.0566
     48 O         2.797075   -0.811966   -1.221516 O.3        1 UNL1     -0.3909
     49 C         0.183769   -0.84779   0.60918 C.3        1 UNL1     -0.0577
     50 O         2.551448   0.318606   3.065466 O.3        1 UNL1     -0.3910
     51 O         0.869094   1.227786   5.179213 O.3        1 UNL1     -0.3753
     52 C         -1.020431   1.596729   1.954674 C.3        1 UNL1     -0.0564
     53 O         -1.852485   -1.392735   2.995428 O.3        1 UNL1     -0.4608
     54 C         -2.987666   -0.889057   2.416116 C.2        1 UNL1     0.3042
     55 O         -4.12565   -0.883794   2.883879 O.2        1 UNL1     -0.2512
     56 C         -2.744246   -0.233289   1.086669 C.3        1 UNL1     0.0332
     57 C         1.072603   -1.320625   5.271773 C.3        1 UNL1     -0.0567
     58 C         0.29414   5.731307   2.768648 C.3        1 UNL1     0.0210
     59 C         2.15654   1.835229   5.275968 C.3        1 UNL1     0.0372
     60 C         0.718307   2.984349   3.661125 C.2        1 UNL1     -0.0208
     61 C         1.982014   3.3817   3.815728 C.2        1 UNL1     0.0882
     62 H         3.496166   2.17365   -0.100044 H        1 UNL1     0.0365
     63 H         4.048495   3.779257   -1.234588 H        1 UNL1     0.0576
     64 H         4.706295   2.927756   -4.122324 H        1 UNL1     0.0615
     65 H         4.554749   5.708465   -2.707211 H        1 UNL1     0.0622
     66 H         -0.777336   2.41508   4.987444 H        1 UNL1     0.0645
     67 H         -1.95222   1.183088   3.721724 H        1 UNL1     0.0362
     68 H         -1.176482   -0.633595   4.677689 H        1 UNL1     0.0741
     69 H         0.559568   -2.306708   3.576231 H        1 UNL1     0.0359
     70 H         2.545692   -1.661659   2.777023 H        1 UNL1     0.0600
     71 H         1.985186   -1.80687   0.686698 H        1 UNL1     0.0348
     72 H         3.076864   0.367807   0.581499 H        1 UNL1     0.0602
     73 H         0.056015   3.546932   3.05111 H        1 UNL1     0.0628
     74 H         2.737793   2.829949   4.375734 H        1 UNL1     0.1022
     75 H         4.87437   5.213852   -6.754167 H        1 UNL1     0.0279
     76 H         3.999165   6.691431   -6.818027 H        1 UNL1     0.0279
     77 H         5.792974   6.651652   -6.581456 H        1 UNL1     0.0279
     78 H         2.523286   7.358031   -5.292717 H        1 UNL1     0.1553
     79 H         1.876171   5.513837   -4.966506 H        1 UNL1     0.1484
     80 H         -0.831652   3.765877   -2.953592 H        1 UNL1     0.0317
     81 H         -0.641619   5.513265   -2.974741 H        1 UNL1     0.0317
     82 H         -0.121508   5.4853   -5.4288 H        1 UNL1     0.0428
     83 H         -1.66947   4.759084   -5.057144 H        1 UNL1     0.0428
     84 H         1.573898   2.088765   -5.730266 H        1 UNL1     0.0428
     85 H         1.921883   3.775045   -5.886751 H        1 UNL1     0.0428
     86 H         2.560532   2.683501   -3.736051 H        1 UNL1     0.0317
     87 H         0.95638   2.243209   -3.368366 H        1 UNL1     0.0317
     88 H         0.18624   3.35471   -7.580811 H        1 UNL1     0.0429
     89 H         -0.973106   2.139811   -7.036592 H        1 UNL1     0.0429
     90 H         -1.799323   4.933285   -6.401115 H        1 UNL1     0.0308
     91 H         -1.007224   4.226654   -9.238956 H        1 UNL1     0.0233
     92 H         -2.500176   5.165607   -8.984089 H        1 UNL1     0.0233
     93 H         -0.959329   5.793711   -8.440142 H        1 UNL1     0.0233
     94 H         -3.879761   4.083317   -7.623107 H        1 UNL1     0.0233
     95 H         -3.057569   2.516264   -7.67482 H        1 UNL1     0.0233
     96 H         -3.425076   3.275386   -6.108722 H        1 UNL1     0.0233
     97 H         3.610839   9.464251   3.237573 H        1 UNL1     0.0280
     98 H         2.740724   10.683336   2.346551 H        1 UNL1     0.0280
     99 H         1.837857   9.428349   3.246312 H        1 UNL1     0.0280
     100 H         2.559359   11.080963   0.414792 H        1 UNL1     0.2922
     101 H         5.285489   0.986294   0.535248 H        1 UNL1     0.0236
     102 H         5.902321   0.992133   -1.163441 H        1 UNL1     0.0236
     103 H         4.953849   -0.327056   -0.550548 H        1 UNL1     0.0236
     104 H         2.281843   -0.698988   -2.044159 H        1 UNL1     0.2098
     105 H         -0.1096   -1.731049   0.047396 H        1 UNL1     0.0234
     106 H         -0.482343   -0.702439   1.45953 H        1 UNL1     0.0234
     107 H         -0.0   0.0   0.0 H        1 UNL1     0.0234
     108 H         3.37846   0.360953   2.547755 H        1 UNL1     0.2098
     109 H         -1.872702   2.282802   1.851487 H        1 UNL1     0.0234
     110 H         -0.103508   2.099928   1.629424 H        1 UNL1     0.0234
     111 H         -1.176189   0.813718   1.200632 H        1 UNL1     0.0234
     112 H         -3.683494   0.164206   0.690238 H        1 UNL1     0.0342
     113 H         -1.985058   0.545078   1.146846 H        1 UNL1     0.0342
     114 H         -2.381021   -0.999219   0.387681 H        1 UNL1     0.0342
     115 H         0.783903   -2.280104   5.722594 H        1 UNL1     0.0234
     116 H         2.140131   -1.180671   5.453009 H        1 UNL1     0.0234
     117 H         0.522391   -0.610074   5.912339 H        1 UNL1     0.0234
     118 H         -0.231911   4.805207   3.059533 H        1 UNL1     0.0309
     119 H         0.038317   6.52598   3.47664 H        1 UNL1     0.0309
     120 H         -0.181798   6.004992   1.820657 H        1 UNL1     0.0309
     121 H         2.872562   1.052443   5.524793 H        1 UNL1     0.0524
     122 H         2.477914   2.288524   4.323456 H        1 UNL1     0.0524
     123 H         2.154228   2.600097   6.047373 H        1 UNL1     0.0524
@<TRIPOS>BOND
     1     1     2    1
     2     1    42    1
     3     2     3    2
     4     3     4    1
     5     4     5    2
     6     5     7    1
     7     6    75    1
     8     6    76    1
     9     6    77    1
    10     7     9   am
    11     9    10    1
    12    10    11    2
    13    10    43    1
    14    11    14    1
    15    11    15    1
    16    12    13   ar
    17    12    27   ar
    18    12    43    1
    19    13    14    1
    20    13    30   ar
    21    14    17    2
    22    15    16    1
    23    16    17    1
    24    16    18    1
    25    16    22    1
    26    18    19    1
    27    19    20    1
    28    20    21    1
    29    21    22    1
    30    23    24    1
    31    23    88    1
    32    23    89    1
    33    24    25    1
    34    24    26    1
    35    24    90    1
    36    25    91    1
    37    25    92    1
    38    25    93    1
    39    26    94    1
    40    26    95    1
    41    26    96    1
    42    27    28   ar
    43    28    29   ar
    44    29    30   ar
    45    29    31    1
    46    30    33    1
    47    31    32    1
    48    32    33    1
    49    32    35    1
    50    34    97    1
    51    34    98    1
    52    34    99    1
    53    35    61    1
    54    36    37    1
    55    36    60    1
    56    37    38    1
    57    38    39    1
    58    39    40    1
    59    40    41    1
    60    41    42    1
    61    45   100    1
    62    47   101    1
    63    47   102    1
    64    47   103    1
    65    48   104    1
    66    49   105    1
    67    49   106    1
    68    49   107    1
    69    50   108    1
    70    51    59    1
    71    52   109    1
    72    52   110    1
    73    52   111    1
    74    53    54    1
    75    54    55    2
    76    54    56    1
    77    56   112    1
    78    56   113    1
    79    56   114    1
    80    57   115    1
    81    57   116    1
    82    57   117    1
    83    58   118    1
    84    58   119    1
    85    58   120    1
    86    59   121    1
    87    59   122    1
    88    59   123    1
    89    60    61    2
    90     1    47    1
    91     1    62    1
    92     2    63    1
    93     3    64    1
    94     4    65    1
    95     5     6    1
    96     7     8    2
    97     9    78    1
    98    15    79    1
    99    18    80    1
   100    18    81    1
   101    19    82    1
   102    19    83    1
   103    20    23    1
   104    21    84    1
   105    21    85    1
   106    22    86    1
   107    22    87    1
   108    27    45    1
   109    28    34    1
   110    32    58    1
   111    33    46    2
   112    36    51    1
   113    36    66    1
   114    37    52    1
   115    37    67    1
   116    38    53    1
   117    38    68    1
   118    42    48    1
   119    42    72    1
   120    43    44    2
   121    60    73    1
   122    61    74    1
   123    39    69    1
   124    39    57    1
   125    40    70    1
   126    40    50    1
   127    41    71    1
   128    41    49    1
