@<TRIPOS>MOLECULE
*****
 123 128 0 0 0
SMALL
GASTEIGER

@<TRIPOS>ATOM
     1 C         5.183817   1.673898   0.570422 C.3        1 UNL1     0.0009
     2 C         6.646547   2.454293   -0.259301 C.2        1 UNL1     -0.0787
     3 C         7.937834   2.333722   -0.902797 C.2        1 UNL1     -0.0649
     4 C         8.846306   3.551889   -1.649191 C.2        1 UNL1     -0.0542
     5 C         9.886263   3.824667   -2.571774 C.2        1 UNL1     0.0115
     6 C         11.019365   3.178213   -3.41528 C.3        1 UNL1     -0.0348
     7 C         10.014037   5.303337   -3.18349 C.2        1 UNL1     0.2441
     8 O         10.843679   6.114447   -2.795777 O.2        1 UNL1     -0.2702
     9 N         9.286819   5.515718   -4.367635 N.am        1 UNL1     -0.2772
     10 C         8.004948   5.923031   -4.077417 C.2        1 UNL1     0.1049
     11 C         7.139891   4.965792   -3.795297 C.2        1 UNL1     0.0801
     12 C         6.707238   7.55579   -2.696337 C.ar        1 UNL1     0.0753
     13 C         5.923921   6.441538   -2.25649 C.ar        1 UNL1     0.0305
     14 C         6.032101   5.131082   -2.893712 C.2        1 UNL1     0.0924
     15 N         7.245223   3.634366   -3.946092 N.pl3        1 UNL1     -0.3170
     16 C         5.961409   3.055761   -3.650639 C.3        1 UNL1     0.1275
     17 N         5.323004   4.025189   -2.686081 N.2        1 UNL1     -0.2557
     18 C         5.130937   3.121337   -4.928808 C.3        1 UNL1     0.0016
     19 C         5.894363   2.420519   -6.041293 C.3        1 UNL1     0.0026
     20 N         6.137268   1.040454   -5.644501 N.3        1 UNL1     -0.3018
     21 C         6.877162   0.874782   -4.391713 C.3        1 UNL1     0.0026
     22 C         6.090102   1.582346   -3.287274 C.3        1 UNL1     0.0016
     23 C         6.588049   0.20893   -6.742686 C.3        1 UNL1     0.0012
     24 C         5.445687   -0.028103   -7.742976 C.3        1 UNL1     -0.0339
     25 C         5.510973   0.963252   -8.916437 C.3        1 UNL1     -0.0615
     26 C         5.466628   -1.467974   -8.225794 C.3        1 UNL1     -0.0615
     27 C         6.512563   8.829034   -2.166176 C.ar        1 UNL1     0.1347
     28 C         5.541632   9.117578   -1.223793 C.ar        1 UNL1     0.0342
     29 C         4.81548   7.995999   -0.769999 C.ar        1 UNL1     0.1435
     30 C         5.024144   6.70837   -1.265674 C.ar        1 UNL1     0.0774
     31 O         3.762091   8.12928   0.065233 O.3        1 UNL1     -0.4436
     32 C         3.024496   6.906681   -0.083351 C.3        1 UNL1     0.3143
     33 C         4.031595   5.895962   -0.593658 C.2        1 UNL1     0.2504
     34 C         5.107983   10.492347   -0.797113 C.3        1 UNL1     -0.0327
     35 O         2.635248   6.481891   1.228629 O.2        1 UNL1     -0.4528
     36 C         -0.629282   4.596378   0.786167 C.3        1 UNL1     0.0854
     37 C         -0.93832   3.336088   -0.11032 C.3        1 UNL1     0.0236
     38 C         -1.570899   2.088038   0.673236 C.3        1 UNL1     0.1131
     39 C         -0.875188   1.552747   1.989184 C.3        1 UNL1     0.0200
     40 C         0.782706   1.382637   2.059097 C.3        1 UNL1     0.0661
     41 C         1.749964   0.593833   0.910267 C.3        1 UNL1     0.0091
     42 C         3.472046   0.928091   0.37351 C.3        1 UNL1     0.0661
     43 C         7.672784   7.328419   -3.800095 C.2        1 UNL1     0.2131
     44 O         8.098128   8.216881   -4.515955 O.2        1 UNL1     -0.2851
     45 O         7.347866   9.849636   -2.615707 O.3        1 UNL1     -0.5056
     46 O         4.027324   4.692982   -0.457006 O.2        1 UNL1     -0.2836
     47 C         5.549438   1.245645   2.017108 C.3        1 UNL1     -0.0566
     48 O         3.89795   -0.489131   0.469458 O.3        1 UNL1     -0.3909
     49 C         0.933361   0.367609   -0.34252 C.3        1 UNL1     -0.0577
     50 O         1.394414   2.593329   2.456288 O.3        1 UNL1     -0.3910
     51 O         -0.779593   4.415436   2.176166 O.3        1 UNL1     -0.3753
     52 C         0.122852   3.154372   -1.244271 C.3        1 UNL1     -0.0564
     53 O         -2.173798   1.05374   -0.231786 O.3        1 UNL1     -0.4608
     54 C         -2.433468   -0.247678   0.109991 C.2        1 UNL1     0.3042
     55 O         -1.872139   -1.257336   -0.313494 O.2        1 UNL1     -0.2512
     56 C         -3.493729   -0.392502   1.16431 C.3        1 UNL1     0.0332
     57 C         -1.607213   2.238636   3.234925 C.3        1 UNL1     -0.0567
     58 C         1.971489   7.16244   -1.186662 C.3        1 UNL1     0.0210
     59 C         -1.087471   5.602618   2.905326 C.3        1 UNL1     0.0372
     60 C         0.712694   5.204415   0.575094 C.2        1 UNL1     -0.0208
     61 C         1.617304   5.630258   1.457751 C.2        1 UNL1     0.0882
     62 H         4.721316   2.665481   0.645031 H        1 UNL1     0.0365
     63 H         6.394408   3.512455   -0.163443 H        1 UNL1     0.0576
     64 H         8.384583   1.359071   -1.111555 H        1 UNL1     0.0615
     65 H         8.367249   4.476152   -1.314939 H        1 UNL1     0.0622
     66 H         -1.357324   5.352396   0.459919 H        1 UNL1     0.0645
     67 H         -1.788725   3.655317   -0.737587 H        1 UNL1     0.0362
     68 H         -2.517089   2.54073   1.006877 H        1 UNL1     0.0741
     69 H         -1.225085   0.547686   2.18369 H        1 UNL1     0.0359
     70 H         0.869724   0.725068   2.945151 H        1 UNL1     0.0600
     71 H         1.771033   -0.425749   1.342661 H        1 UNL1     0.0348
     72 H         3.357042   1.422651   1.348958 H        1 UNL1     0.0602
     73 H         0.850951   5.394764   -0.460232 H        1 UNL1     0.0628
     74 H         1.57861   5.425162   2.528114 H        1 UNL1     0.1022
     75 H         11.044676   2.073163   -3.256358 H        1 UNL1     0.0279
     76 H         10.925141   3.257364   -4.495986 H        1 UNL1     0.0279
     77 H         12.023264   3.469492   -3.073163 H        1 UNL1     0.0279
     78 H         9.220605   4.644211   -4.889333 H        1 UNL1     0.1553
     79 H         7.914284   3.193451   -4.550149 H        1 UNL1     0.1484
     80 H         4.159268   2.64577   -4.748636 H        1 UNL1     0.0317
     81 H         4.924501   4.160006   -5.208454 H        1 UNL1     0.0317
     82 H         6.836932   2.936641   -6.276015 H        1 UNL1     0.0428
     83 H         5.285192   2.480582   -6.943708 H        1 UNL1     0.0428
     84 H         6.976603   -0.16831   -4.075671 H        1 UNL1     0.0428
     85 H         7.914262   1.226882   -4.479844 H        1 UNL1     0.0428
     86 H         6.587368   1.328791   -2.369437 H        1 UNL1     0.0317
     87 H         5.101636   1.120004   -3.176505 H        1 UNL1     0.0317
     88 H         7.400907   0.736174   -7.258991 H        1 UNL1     0.0429
     89 H         7.000441   -0.741448   -6.380074 H        1 UNL1     0.0429
     90 H         4.485745   0.101621   -7.229269 H        1 UNL1     0.0308
     91 H         6.469536   0.89746   -9.43982 H        1 UNL1     0.0233
     92 H         4.701444   0.776006   -9.625811 H        1 UNL1     0.0233
     93 H         5.39727   2.004251   -8.590514 H        1 UNL1     0.0233
     94 H         4.784109   -1.592053   -9.073502 H        1 UNL1     0.0233
     95 H         6.472709   -1.735015   -8.561133 H        1 UNL1     0.0233
     96 H         5.163463   -2.158788   -7.434065 H        1 UNL1     0.0233
     97 H         4.299593   10.458132   -0.072843 H        1 UNL1     0.0280
     98 H         5.920337   11.051374   -0.314591 H        1 UNL1     0.0280
     99 H         4.760456   11.05917   -1.676335 H        1 UNL1     0.0280
     100 H         6.897642   10.606059   -2.948491 H        1 UNL1     0.2922
     101 H         4.671844   0.827432   2.509636 H        1 UNL1     0.0236
     102 H         6.002454   2.047025   2.599817 H        1 UNL1     0.0236
     103 H         6.293471   0.431783   2.032544 H        1 UNL1     0.0236
     104 H         4.3008   -0.617046   1.350549 H        1 UNL1     0.2098
     105 H         0.743894   1.266668   -0.92356 H        1 UNL1     0.0234
     106 H         1.301864   -0.429072   -0.98861 H        1 UNL1     0.0234
     107 H         0.0   -0.0   0.0 H        1 UNL1     0.0234
     108 H         1.218054   3.250838   1.75604 H        1 UNL1     0.2098
     109 H         1.139332   3.027498   -0.846297 H        1 UNL1     0.0234
     110 H         -0.110518   2.327482   -1.923635 H        1 UNL1     0.0234
     111 H         0.168259   4.033531   -1.900748 H        1 UNL1     0.0234
     112 H         -3.645981   -1.451017   1.396065 H        1 UNL1     0.0342
     113 H         -3.257178   0.174253   2.063574 H        1 UNL1     0.0342
     114 H         -4.435845   0.002631   0.760017 H        1 UNL1     0.0342
     115 H         -2.680931   2.006539   3.256129 H        1 UNL1     0.0234
     116 H         -1.191218   1.95715   4.204339 H        1 UNL1     0.0234
     117 H         -1.628453   3.340691   3.18048 H        1 UNL1     0.0234
     118 H         1.071017   7.66477   -0.79192 H        1 UNL1     0.0309
     119 H         2.363812   7.740653   -2.029249 H        1 UNL1     0.0309
     120 H         1.57618   6.234292   -1.613718 H        1 UNL1     0.0309
     121 H         -0.253776   6.292768   2.778822 H        1 UNL1     0.0524
     122 H         -1.993615   6.103534   2.525823 H        1 UNL1     0.0524
     123 H         -1.226689   5.371878   3.957691 H        1 UNL1     0.0524
@<TRIPOS>BOND
     1     1     2    1
     2     1    42    1
     3     2     3    2
     4     3     4    1
     5     4     5    2
     6     5     7    1
     7     6    75    1
     8     6    76    1
     9     6    77    1
    10     7     9   am
    11     9    10    1
    12    10    11    2
    13    10    43    1
    14    11    14    1
    15    11    15    1
    16    12    13   ar
    17    12    27   ar
    18    12    43    1
    19    13    14    1
    20    13    30   ar
    21    14    17    2
    22    15    16    1
    23    16    17    1
    24    16    18    1
    25    16    22    1
    26    18    19    1
    27    19    20    1
    28    20    21    1
    29    21    22    1
    30    23    24    1
    31    23    88    1
    32    23    89    1
    33    24    25    1
    34    24    26    1
    35    24    90    1
    36    25    91    1
    37    25    92    1
    38    25    93    1
    39    26    94    1
    40    26    95    1
    41    26    96    1
    42    27    28   ar
    43    28    29   ar
    44    29    30   ar
    45    29    31    1
    46    30    33    1
    47    31    32    1
    48    32    33    1
    49    32    35    1
    50    34    97    1
    51    34    98    1
    52    34    99    1
    53    35    61    1
    54    36    37    1
    55    36    60    1
    56    37    38    1
    57    38    39    1
    58    39    40    1
    59    40    41    1
    60    41    42    1
    61    45   100    1
    62    47   101    1
    63    47   102    1
    64    47   103    1
    65    48   104    1
    66    49   105    1
    67    49   106    1
    68    49   107    1
    69    50   108    1
    70    51    59    1
    71    52   109    1
    72    52   110    1
    73    52   111    1
    74    53    54    1
    75    54    55    2
    76    54    56    1
    77    56   112    1
    78    56   113    1
    79    56   114    1
    80    57   115    1
    81    57   116    1
    82    57   117    1
    83    58   118    1
    84    58   119    1
    85    58   120    1
    86    59   121    1
    87    59   122    1
    88    59   123    1
    89    60    61    2
    90     1    47    1
    91     1    62    1
    92     2    63    1
    93     3    64    1
    94     4    65    1
    95     5     6    1
    96     7     8    2
    97     9    78    1
    98    15    79    1
    99    18    80    1
   100    18    81    1
   101    19    82    1
   102    19    83    1
   103    20    23    1
   104    21    84    1
   105    21    85    1
   106    22    86    1
   107    22    87    1
   108    27    45    1
   109    28    34    1
   110    32    58    1
   111    33    46    2
   112    36    51    1
   113    36    66    1
   114    37    52    1
   115    37    67    1
   116    38    53    1
   117    38    68    1
   118    42    48    1
   119    42    72    1
   120    43    44    2
   121    60    73    1
   122    61    74    1
   123    39    69    1
   124    39    57    1
   125    40    70    1
   126    40    50    1
   127    41    71    1
   128    41    49    1
