@<TRIPOS>MOLECULE
*****
 123 128 0 0 0
SMALL
GASTEIGER

@<TRIPOS>ATOM
     1 C         3.29002   1.957709   -3.626568 C.3        1 UNL1     0.0009
     2 C         4.087978   1.493062   -5.234176 C.2        1 UNL1     -0.0787
     3 C         5.274058   1.183187   -6.004395 C.2        1 UNL1     -0.0649
     4 C         5.363429   0.657755   -7.611346 C.2        1 UNL1     -0.0542
     5 C         6.171566   0.009534   -8.57768 C.2        1 UNL1     0.0115
     6 C         7.601925   -0.523554   -8.86615 C.3        1 UNL1     -0.0348
     7 C         5.479133   -0.578573   -9.901182 C.2        1 UNL1     0.2441
     8 O         5.532089   -0.015779   -10.986071 O.2        1 UNL1     -0.2702
     9 N         5.032398   -1.906942   -9.791566 N.am        1 UNL1     -0.2772
     10 C         3.747448   -1.942478   -9.300686 C.2        1 UNL1     0.1049
     11 C         3.623282   -1.861472   -7.988344 C.2        1 UNL1     0.0801
     12 C         1.475344   -0.94472   -9.615894 C.ar        1 UNL1     0.0753
     13 C         1.478603   -0.68821   -8.207775 C.ar        1 UNL1     0.0305
     14 C         2.497432   -1.2576   -7.328665 C.2        1 UNL1     0.0924
     15 N         4.555258   -1.959279   -7.024818 N.pl3        1 UNL1     -0.3170
     16 C         3.876148   -1.973168   -5.756406 C.3        1 UNL1     0.1275
     17 N         2.598613   -1.208567   -6.003415 N.2        1 UNL1     -0.2557
     18 C         3.460305   -3.415192   -5.481922 C.3        1 UNL1     0.0016
     19 C         4.696908   -4.297708   -5.541646 C.3        1 UNL1     0.0026
     20 N         5.653679   -3.830155   -4.548161 N.3        1 UNL1     -0.3018
     21 C         6.06746   -2.432933   -4.692812 C.3        1 UNL1     0.0026
     22 C         4.810326   -1.564057   -4.625261 C.3        1 UNL1     0.0016
     23 C         6.730174   -4.77216   -4.314861 C.3        1 UNL1     0.0012
     24 C         6.207975   -6.014808   -3.576695 C.3        1 UNL1     -0.0339
     25 C         7.264825   -6.583488   -2.615588 C.3        1 UNL1     -0.0615
     26 C         4.91397   -5.685205   -2.853029 C.3        1 UNL1     -0.0615
     27 C         0.43515   -0.499475   -10.42822 C.ar        1 UNL1     0.1347
     28 C         -0.670807   0.17495   -9.94236 C.ar        1 UNL1     0.0342
     29 C         -0.622328   0.458944   -8.560998 C.ar        1 UNL1     0.1435
     30 C         0.430464   0.050788   -7.741084 C.ar        1 UNL1     0.0774
     31 O         -1.673716   1.012156   -7.917922 O.3        1 UNL1     -0.4436
     32 C         -1.450714   0.710728   -6.532179 C.3        1 UNL1     0.3143
     33 C         0.04167   0.476713   -6.412855 C.2        1 UNL1     0.2504
     34 C         -1.934713   0.460248   -10.704754 C.3        1 UNL1     -0.0327
     35 O         -1.74808   1.896742   -5.785053 O.2        1 UNL1     -0.4528
     36 C         -2.979774   0.710461   -2.396284 C.3        1 UNL1     0.0854
     37 C         -2.257327   -0.212237   -1.340717 C.3        1 UNL1     0.0236
     38 C         -2.125791   0.416496   0.128683 C.3        1 UNL1     0.1131
     39 C         -1.530229   1.870694   0.310021 C.3        1 UNL1     0.0200
     40 C         -0.177809   2.342464   -0.544866 C.3        1 UNL1     0.0661
     41 C         1.275476   1.475511   -0.663044 C.3        1 UNL1     0.0091
     42 C         2.487268   1.365528   -2.035948 C.3        1 UNL1     0.0661
     43 C         2.571844   -1.778064   -10.168602 C.2        1 UNL1     0.2131
     44 O         2.490924   -2.385031   -11.221113 O.2        1 UNL1     -0.2851
     45 O         0.531177   -0.751187   -11.795281 O.3        1 UNL1     -0.5056
     46 O         0.753303   0.629043   -5.445266 O.2        1 UNL1     -0.2836
     47 C         3.542132   3.457053   -3.312897 C.3        1 UNL1     -0.0566
     48 O         3.666587   1.586121   -1.164362 O.3        1 UNL1     -0.3909
     49 C         1.045149   0.066509   -0.163889 C.3        1 UNL1     -0.0577
     50 O         -0.539145   2.854835   -1.811608 O.3        1 UNL1     -0.3910
     51 O         -3.261461   2.025744   -1.974247 O.3        1 UNL1     -0.3753
     52 C         -1.110178   -1.052531   -1.991029 C.3        1 UNL1     -0.0564
     53 O         -1.764679   -0.589466   1.182231 O.3        1 UNL1     -0.4608
     54 C         -0.931443   -0.362278   2.246202 C.2        1 UNL1     0.3042
     55 O         0.23917   -0.720983   2.367996 O.2        1 UNL1     -0.2512
     56 C         -1.554192   0.469936   3.330784 C.3        1 UNL1     0.0332
     57 C         -2.760471   2.890341   0.380719 C.3        1 UNL1     -0.0567
     58 C         -2.18833   -0.618768   -6.24953 C.3        1 UNL1     0.0210
     59 C         -4.640434   2.292098   -1.722541 C.3        1 UNL1     0.0372
     60 C         -2.291504   0.819772   -3.711387 C.2        1 UNL1     -0.0208
     61 C         -2.043107   1.887528   -4.470952 C.2        1 UNL1     0.0882
     62 H         2.311268   1.901087   -4.118044 H        1 UNL1     0.0365
     63 H         3.223941   1.506786   -5.9018 H        1 UNL1     0.0576
     64 H         6.257299   1.105562   -5.535014 H        1 UNL1     0.0615
     65 H         4.36151   0.850186   -8.004553 H        1 UNL1     0.0622
     66 H         -3.934768   0.20479   -2.597107 H        1 UNL1     0.0645
     67 H         -2.975488   -1.031991   -1.165199 H        1 UNL1     0.0362
     68 H         -3.19204   0.503496   0.387656 H        1 UNL1     0.0741
     69 H         -1.215319   1.992133   1.337879 H        1 UNL1     0.0359
     70 H         0.116333   3.234484   0.04066 H        1 UNL1     0.0600
     71 H         1.833868   1.917716   0.185254 H        1 UNL1     0.0348
     72 H         1.898821   2.275498   -2.223027 H        1 UNL1     0.0602
     73 H         -2.095975   -0.154502   -4.085295 H        1 UNL1     0.0628
     74 H         -2.16081   2.920129   -4.140622 H        1 UNL1     0.1022
     75 H         8.368055   0.241026   -8.591386 H        1 UNL1     0.0279
     76 H         7.92097   -1.391299   -8.293178 H        1 UNL1     0.0279
     77 H         7.799297   -0.651875   -9.940523 H        1 UNL1     0.0279
     78 H         5.624488   -2.414023   -9.137063 H        1 UNL1     0.1553
     79 H         5.457645   -2.375857   -7.162998 H        1 UNL1     0.1484
     80 H         2.97826   -3.467202   -4.498208 H        1 UNL1     0.0317
     81 H         2.718434   -3.754374   -6.212836 H        1 UNL1     0.0317
     82 H         5.142735   -4.306359   -6.547168 H        1 UNL1     0.0428
     83 H         4.377441   -5.321571   -5.344932 H        1 UNL1     0.0428
     84 H         6.723343   -2.084246   -3.889043 H        1 UNL1     0.0428
     85 H         6.657005   -2.27367   -5.606261 H        1 UNL1     0.0428
     86 H         5.160944   -0.548956   -4.600272 H        1 UNL1     0.0317
     87 H         4.321267   -1.68769   -3.651284 H        1 UNL1     0.0317
     88 H         7.126954   -5.085556   -5.289357 H        1 UNL1     0.0429
     89 H         7.557625   -4.304199   -3.766124 H        1 UNL1     0.0429
     90 H         5.95196   -6.787682   -4.31109 H        1 UNL1     0.0308
     91 H         7.728479   -5.791148   -2.020336 H        1 UNL1     0.0233
     92 H         6.819473   -7.322   -1.944864 H        1 UNL1     0.0233
     93 H         8.075231   -7.099893   -3.144175 H        1 UNL1     0.0233
     94 H         5.127052   -5.136758   -1.929104 H        1 UNL1     0.0233
     95 H         4.284178   -5.051453   -3.48365 H        1 UNL1     0.0233
     96 H         4.358179   -6.591461   -2.596582 H        1 UNL1     0.0233
     97 H         -2.807908   0.033574   -10.220284 H        1 UNL1     0.0280
     98 H         -2.133437   1.5367   -10.788518 H        1 UNL1     0.0280
     99 H         -1.858696   0.033405   -11.718224 H        1 UNL1     0.0280
     100 H         1.356521   -0.513775   -12.180073 H        1 UNL1     0.2922
     101 H         2.6352   4.030243   -3.504163 H        1 UNL1     0.0236
     102 H         4.403379   3.866308   -3.839914 H        1 UNL1     0.0236
     103 H         3.759886   3.625829   -2.245053 H        1 UNL1     0.0236
     104 H         3.35288   1.589326   -0.238863 H        1 UNL1     0.2098
     105 H         1.321144   -0.711336   -0.871418 H        1 UNL1     0.0234
     106 H         1.472882   -0.145072   0.816011 H        1 UNL1     0.0234
     107 H         0.0   0.0   0.0 H        1 UNL1     0.0234
     108 H         0.27478   2.899266   -2.349494 H        1 UNL1     0.2098
     109 H         -1.480709   -1.721859   -2.779964 H        1 UNL1     0.0234
     110 H         -0.29585   -0.435798   -2.386317 H        1 UNL1     0.0234
     111 H         -0.618442   -1.703349   -1.255789 H        1 UNL1     0.0234
     112 H         -0.832328   0.630896   4.137228 H        1 UNL1     0.0342
     113 H         -1.934982   1.417387   2.952397 H        1 UNL1     0.0342
     114 H         -2.404362   -0.088407   3.746271 H        1 UNL1     0.0342
     115 H         -2.553477   3.734071   1.053372 H        1 UNL1     0.0234
     116 H         -3.049452   3.305144   -0.586999 H        1 UNL1     0.0234
     117 H         -3.662043   2.460094   0.849758 H        1 UNL1     0.0234
     118 H         -3.069046   -0.474214   -5.599568 H        1 UNL1     0.0309
     119 H         -2.497447   -1.140718   -7.160692 H        1 UNL1     0.0309
     120 H         -1.573116   -1.329422   -5.686868 H        1 UNL1     0.0309
     121 H         -5.093359   2.602715   -2.663675 H        1 UNL1     0.0524
     122 H         -5.182229   1.397628   -1.372658 H        1 UNL1     0.0524
     123 H         -4.741893   3.078631   -0.980136 H        1 UNL1     0.0524
@<TRIPOS>BOND
     1     1     2    1
     2     1    42    1
     3     2     3    2
     4     3     4    1
     5     4     5    2
     6     5     7    1
     7     6    75    1
     8     6    76    1
     9     6    77    1
    10     7     9   am
    11     9    10    1
    12    10    11    2
    13    10    43    1
    14    11    14    1
    15    11    15    1
    16    12    13   ar
    17    12    27   ar
    18    12    43    1
    19    13    14    1
    20    13    30   ar
    21    14    17    2
    22    15    16    1
    23    16    17    1
    24    16    18    1
    25    16    22    1
    26    18    19    1
    27    19    20    1
    28    20    21    1
    29    21    22    1
    30    23    24    1
    31    23    88    1
    32    23    89    1
    33    24    25    1
    34    24    26    1
    35    24    90    1
    36    25    91    1
    37    25    92    1
    38    25    93    1
    39    26    94    1
    40    26    95    1
    41    26    96    1
    42    27    28   ar
    43    28    29   ar
    44    29    30   ar
    45    29    31    1
    46    30    33    1
    47    31    32    1
    48    32    33    1
    49    32    35    1
    50    34    97    1
    51    34    98    1
    52    34    99    1
    53    35    61    1
    54    36    37    1
    55    36    60    1
    56    37    38    1
    57    38    39    1
    58    39    40    1
    59    40    41    1
    60    41    42    1
    61    45   100    1
    62    47   101    1
    63    47   102    1
    64    47   103    1
    65    48   104    1
    66    49   105    1
    67    49   106    1
    68    49   107    1
    69    50   108    1
    70    51    59    1
    71    52   109    1
    72    52   110    1
    73    52   111    1
    74    53    54    1
    75    54    55    2
    76    54    56    1
    77    56   112    1
    78    56   113    1
    79    56   114    1
    80    57   115    1
    81    57   116    1
    82    57   117    1
    83    58   118    1
    84    58   119    1
    85    58   120    1
    86    59   121    1
    87    59   122    1
    88    59   123    1
    89    60    61    2
    90     1    47    1
    91     1    62    1
    92     2    63    1
    93     3    64    1
    94     4    65    1
    95     5     6    1
    96     7     8    2
    97     9    78    1
    98    15    79    1
    99    18    80    1
   100    18    81    1
   101    19    82    1
   102    19    83    1
   103    20    23    1
   104    21    84    1
   105    21    85    1
   106    22    86    1
   107    22    87    1
   108    27    45    1
   109    28    34    1
   110    32    58    1
   111    33    46    2
   112    36    51    1
   113    36    66    1
   114    37    52    1
   115    37    67    1
   116    38    53    1
   117    38    68    1
   118    42    48    1
   119    42    72    1
   120    43    44    2
   121    60    73    1
   122    61    74    1
   123    39    69    1
   124    39    57    1
   125    40    70    1
   126    40    50    1
   127    41    71    1
   128    41    49    1
