@<TRIPOS>MOLECULE
*****
 123 128 0 0 0
SMALL
GASTEIGER

@<TRIPOS>ATOM
     1 C         4.358573   2.75157   1.85229 C.3        1 UNL1     0.0009
     2 C         5.695334   3.968814   1.441896 C.2        1 UNL1     -0.0787
     3 C         7.070725   4.252852   1.090231 C.2        1 UNL1     -0.0649
     4 C         7.752488   5.747164   0.679637 C.2        1 UNL1     -0.0542
     5 C         8.839818   6.390339   0.038453 C.2        1 UNL1     0.0115
     6 C         10.241232   6.161081   -0.591471 C.3        1 UNL1     -0.0348
     7 C         8.689043   7.930334   -0.38895 C.2        1 UNL1     0.2441
     8 O         9.188097   8.849095   0.246147 O.2        1 UNL1     -0.2702
     9 N         8.169506   8.13539   -1.678983 N.am        1 UNL1     -0.2772
     10 C         6.794784   8.180677   -1.641418 C.2        1 UNL1     0.1049
     11 C         6.173651   7.015183   -1.647624 C.2        1 UNL1     0.0801
     12 C         4.87729   9.239663   -0.433486 C.ar        1 UNL1     0.0753
     13 C         4.344783   7.919636   -0.283239 C.ar        1 UNL1     0.0305
     14 C         4.911296   6.779782   -1.000768 C.2        1 UNL1     0.0924
     15 N         6.650835   5.783353   -1.89545 N.pl3        1 UNL1     -0.3170
     16 C         5.531682   4.880445   -1.945506 C.3        1 UNL1     0.1275
     17 N         4.490812   5.519327   -1.058859 N.2        1 UNL1     -0.2557
     18 C         4.970722   4.933806   -3.363314 C.3        1 UNL1     0.0016
     19 C         6.087514   4.604161   -4.340914 C.3        1 UNL1     0.0026
     20 N         6.603917   3.278075   -4.031315 N.3        1 UNL1     -0.3018
     21 C         7.110205   3.110842   -2.66747 C.3        1 UNL1     0.0026
     22 C         5.970806   3.442548   -1.702258 C.3        1 UNL1     0.0016
     23 C         7.456407   2.746779   -5.076125 C.3        1 UNL1     0.0012
     24 C         6.626996   2.394995   -6.321148 C.3        1 UNL1     -0.0339
     25 C         6.742531   3.484329   -7.400064 C.3        1 UNL1     -0.0615
     26 C         7.039714   1.034077   -6.85439 C.3        1 UNL1     -0.0615
     27 C         4.258959   10.338959   0.157558 C.ar        1 UNL1     0.1347
     28 C         3.086081   10.248376   0.885707 C.ar        1 UNL1     0.0342
     29 C         2.606946   8.932805   1.0614 C.ar        1 UNL1     0.1435
     30 C         3.235753   7.817959   0.505576 C.ar        1 UNL1     0.0774
     31 O         1.417026   8.689246   1.652819 O.3        1 UNL1     -0.4436
     32 C         1.06763   7.362061   1.231663 C.3        1 UNL1     0.3143
     33 C         2.382172   6.704352   0.86341 C.2        1 UNL1     0.2504
     34 C         2.234604   11.403749   1.333144 C.3        1 UNL1     -0.0327
     35 O         0.56214   6.669966   2.380026 O.2        1 UNL1     -0.4528
     36 C         -1.949032   4.150805   1.05491 C.3        1 UNL1     0.0854
     37 C         -1.741366   2.99829   -0.001549 C.3        1 UNL1     0.0236
     38 C         -2.161265   1.535156   0.503097 C.3        1 UNL1     0.1131
     39 C         -1.611876   0.993204   1.883941 C.3        1 UNL1     0.0200
     40 C         -0.011708   1.212087   2.301065 C.3        1 UNL1     0.0661
     41 C         1.327908   0.851506   1.324838 C.3        1 UNL1     0.0091
     42 C         2.971529   1.658778   1.214266 C.3        1 UNL1     0.0661
     43 C         6.059605   9.411335   -1.313781 C.2        1 UNL1     0.2131
     44 O         6.364824   10.470122   -1.831999 O.2        1 UNL1     -0.2851
     45 O         4.867038   11.58276   0.000594 O.3        1 UNL1     -0.5056
     46 O         2.667537   5.527894   0.882559 O.2        1 UNL1     -0.2836
     47 C         4.542791   2.215156   3.297386 C.3        1 UNL1     -0.0566
     48 O         3.727817   0.38434   1.268592 O.3        1 UNL1     -0.3909
     49 C         0.851743   0.624165   -0.092581 C.3        1 UNL1     -0.0577
     50 O         0.1746   2.461663   2.934762 O.3        1 UNL1     -0.3910
     51 O         -2.307109   3.738078   2.354475 O.3        1 UNL1     -0.3753
     52 C         -0.474811   3.240869   -0.885825 C.3        1 UNL1     -0.0564
     53 O         -2.289286   0.531381   -0.605224 O.3        1 UNL1     -0.4608
     54 C         -2.25865   -0.830099   -0.452377 C.2        1 UNL1     0.3042
     55 O         -1.381937   -1.604861   -0.833108 O.2        1 UNL1     -0.2512
     56 C         -3.424768   -1.374679   0.322423 C.3        1 UNL1     0.0332
     57 C         -2.720278   1.296449   2.996443 C.3        1 UNL1     -0.0567
     58 C         0.213129   7.519827   -0.047582 C.3        1 UNL1     0.0210
     59 C         -3.047696   4.698801   3.105747 C.3        1 UNL1     0.0372
     60 C         -0.798536   5.083407   1.20246 C.2        1 UNL1     -0.0208
     61 C         -0.221309   5.577464   2.298572 C.2        1 UNL1     0.0882
     62 H         3.646906   3.583571   1.915667 H        1 UNL1     0.0365
     63 H         5.161253   4.911456   1.578471 H        1 UNL1     0.0576
     64 H         7.788456   3.453012   0.894718 H        1 UNL1     0.0615
     65 H         6.993622   6.472601   0.985166 H        1 UNL1     0.0622
     66 H         -2.774314   4.752322   0.648544 H        1 UNL1     0.0645
     67 H         -2.510946   3.195341   -0.76802 H        1 UNL1     0.0362
     68 H         -3.238458   1.697147   0.661006 H        1 UNL1     0.0741
     69 H         -1.716398   -0.083443   1.90166 H        1 UNL1     0.0359
     70 H         0.075159   0.471474   3.118993 H        1 UNL1     0.0600
     71 H         1.533171   -0.186066   1.653881 H        1 UNL1     0.0348
     72 H         2.548335   1.963872   2.182326 H        1 UNL1     0.0602
     73 H         -0.521505   5.450429   0.245487 H        1 UNL1     0.0628
     74 H         -0.406896   5.214724   3.310113 H        1 UNL1     0.1022
     75 H         10.512427   5.078239   -0.560808 H        1 UNL1     0.0279
     76 H         10.342841   6.398192   -1.648127 H        1 UNL1     0.0279
     77 H         11.052765   6.604758   0.003731 H        1 UNL1     0.0279
     78 H         8.43407   7.358957   -2.281672 H        1 UNL1     0.1553
     79 H         7.513918   5.606623   -2.375854 H        1 UNL1     0.1484
     80 H         4.141773   4.220629   -3.446906 H        1 UNL1     0.0317
     81 H         4.556118   5.923479   -3.58309 H        1 UNL1     0.0317
     82 H         6.88863   5.357381   -4.3129 H        1 UNL1     0.0428
     83 H         5.666244   4.649649   -5.345659 H        1 UNL1     0.0428
     84 H         7.417828   2.086265   -2.436337 H        1 UNL1     0.0428
     85 H         8.015997   3.707455   -2.491657 H        1 UNL1     0.0428
     86 H         6.333973   3.182463   -0.725296 H        1 UNL1     0.0317
     87 H         5.135638   2.748251   -1.855697 H        1 UNL1     0.0317
     88 H         8.185197   3.521166   -5.349042 H        1 UNL1     0.0429
     89 H         8.02705   1.87853   -4.722168 H        1 UNL1     0.0429
     90 H         5.57308   2.297473   -6.034855 H        1 UNL1     0.0308
     91 H         7.784939   3.649389   -7.688581 H        1 UNL1     0.0233
     92 H         6.16376   3.213317   -8.286171 H        1 UNL1     0.0233
     93 H         6.34927   4.450611   -7.061715 H        1 UNL1     0.0233
     94 H         6.609632   0.871694   -7.848622 H        1 UNL1     0.0233
     95 H         8.128309   0.982937   -6.945531 H        1 UNL1     0.0233
     96 H         6.702366   0.228524   -6.196173 H        1 UNL1     0.0233
     97 H         1.338385   11.073376   1.849744 H        1 UNL1     0.0280
     98 H         2.763301   12.059016   2.037673 H        1 UNL1     0.0280
     99 H         1.928931   11.998138   0.456582 H        1 UNL1     0.0280
     100 H         4.30291   12.254029   -0.341137 H        1 UNL1     0.2922
     101 H         3.721992   1.543343   3.547614 H        1 UNL1     0.0236
     102 H         4.663251   3.006651   4.036309 H        1 UNL1     0.0236
     103 H         5.450659   1.597074   3.397109 H        1 UNL1     0.0236
     104 H         3.970483   0.224912   2.201687 H        1 UNL1     0.2098
     105 H         0.54687   1.527852   -0.614321 H        1 UNL1     0.0234
     106 H         1.531619   0.040717   -0.713295 H        1 UNL1     0.0234
     107 H         0.0   0.0   0.0 H        1 UNL1     0.0234
     108 H         -0.015537   3.153922   2.272649 H        1 UNL1     0.2098
     109 H         0.443333   3.313765   -0.286316 H        1 UNL1     0.0234
     110 H         -0.34353   2.483872   -1.666507 H        1 UNL1     0.0234
     111 H         -0.543459   4.186162   -1.440491 H        1 UNL1     0.0234
     112 H         -3.328727   -2.45977   0.425862 H        1 UNL1     0.0342
     113 H         -3.528806   -0.897124   1.295543 H        1 UNL1     0.0342
     114 H         -4.341219   -1.170578   -0.248212 H        1 UNL1     0.0342
     115 H         -3.682993   0.826471   2.752537 H        1 UNL1     0.0234
     116 H         -2.441528   0.971799   4.000908 H        1 UNL1     0.0234
     117 H         -3.009949   2.359991   3.050398 H        1 UNL1     0.0234
     118 H         -0.84629   7.72676   0.184402 H        1 UNL1     0.0309
     119 H         0.589791   8.294502   -0.723013 H        1 UNL1     0.0309
     120 H         0.166984   6.598549   -0.638535 H        1 UNL1     0.0309
     121 H         -2.402334   5.562479   3.263623 H        1 UNL1     0.0524
     122 H         -3.944933   5.048618   2.568503 H        1 UNL1     0.0524
     123 H         -3.350169   4.277434   4.060238 H        1 UNL1     0.0524
@<TRIPOS>BOND
     1     1     2    1
     2     1    42    1
     3     2     3    2
     4     3     4    1
     5     4     5    2
     6     5     7    1
     7     6    75    1
     8     6    76    1
     9     6    77    1
    10     7     9   am
    11     9    10    1
    12    10    11    2
    13    10    43    1
    14    11    14    1
    15    11    15    1
    16    12    13   ar
    17    12    27   ar
    18    12    43    1
    19    13    14    1
    20    13    30   ar
    21    14    17    2
    22    15    16    1
    23    16    17    1
    24    16    18    1
    25    16    22    1
    26    18    19    1
    27    19    20    1
    28    20    21    1
    29    21    22    1
    30    23    24    1
    31    23    88    1
    32    23    89    1
    33    24    25    1
    34    24    26    1
    35    24    90    1
    36    25    91    1
    37    25    92    1
    38    25    93    1
    39    26    94    1
    40    26    95    1
    41    26    96    1
    42    27    28   ar
    43    28    29   ar
    44    29    30   ar
    45    29    31    1
    46    30    33    1
    47    31    32    1
    48    32    33    1
    49    32    35    1
    50    34    97    1
    51    34    98    1
    52    34    99    1
    53    35    61    1
    54    36    37    1
    55    36    60    1
    56    37    38    1
    57    38    39    1
    58    39    40    1
    59    40    41    1
    60    41    42    1
    61    45   100    1
    62    47   101    1
    63    47   102    1
    64    47   103    1
    65    48   104    1
    66    49   105    1
    67    49   106    1
    68    49   107    1
    69    50   108    1
    70    51    59    1
    71    52   109    1
    72    52   110    1
    73    52   111    1
    74    53    54    1
    75    54    55    2
    76    54    56    1
    77    56   112    1
    78    56   113    1
    79    56   114    1
    80    57   115    1
    81    57   116    1
    82    57   117    1
    83    58   118    1
    84    58   119    1
    85    58   120    1
    86    59   121    1
    87    59   122    1
    88    59   123    1
    89    60    61    2
    90     1    47    1
    91     1    62    1
    92     2    63    1
    93     3    64    1
    94     4    65    1
    95     5     6    1
    96     7     8    2
    97     9    78    1
    98    15    79    1
    99    18    80    1
   100    18    81    1
   101    19    82    1
   102    19    83    1
   103    20    23    1
   104    21    84    1
   105    21    85    1
   106    22    86    1
   107    22    87    1
   108    27    45    1
   109    28    34    1
   110    32    58    1
   111    33    46    2
   112    36    51    1
   113    36    66    1
   114    37    52    1
   115    37    67    1
   116    38    53    1
   117    38    68    1
   118    42    48    1
   119    42    72    1
   120    43    44    2
   121    60    73    1
   122    61    74    1
   123    39    69    1
   124    39    57    1
   125    40    70    1
   126    40    50    1
   127    41    71    1
   128    41    49    1
