@<TRIPOS>MOLECULE
*****
 123 128 0 0 0
SMALL
GASTEIGER

@<TRIPOS>ATOM
     1 C         -0.456477   3.121665   -2.865694 C.3        1 UNL1     0.0009
     2 C         -0.675383   4.949429   -2.645696 C.2        1 UNL1     -0.0787
     3 C         -1.534566   6.09467   -2.430587 C.2        1 UNL1     -0.0649
     4 C         -1.077741   7.704167   -2.171382 C.2        1 UNL1     -0.0542
     5 C         -1.491072   8.96133   -1.665638 C.2        1 UNL1     0.0115
     6 C         -2.713637   9.765917   -1.144776 C.3        1 UNL1     -0.0348
     7 C         -0.37695   10.064632   -1.321477 C.2        1 UNL1     0.2441
     8 O         -0.134565   11.015803   -2.051579 O.2        1 UNL1     -0.2702
     9 N         0.117782   10.01188   -0.006711 N.am        1 UNL1     -0.2772
     10 C         1.184949   9.146706   0.070446 C.2        1 UNL1     0.1049
     11 C         0.888049   7.866416   0.200556 C.2        1 UNL1     0.0801
     12 C         3.35545   8.570973   -1.031728 C.ar        1 UNL1     0.0753
     13 C         2.894119   7.216269   -1.055362 C.ar        1 UNL1     0.0305
     14 C         1.701162   6.80129   -0.320722 C.2        1 UNL1     0.0924
     15 N         -0.286428   7.276234   0.4813 N.pl3        1 UNL1     -0.3170
     16 C         -0.036531   5.87348   0.681517 C.3        1 UNL1     0.1275
     17 N         1.189369   5.585573   -0.150349 N.2        1 UNL1     -0.2557
     18 C         0.386725   5.692706   2.136122 C.3        1 UNL1     0.0016
     19 C         -0.695653   6.271854   3.033137 C.3        1 UNL1     0.0026
     20 N         -1.94792   5.579543   2.761918 N.3        1 UNL1     -0.3018
     21 C         -2.406027   5.644584   1.372574 C.3        1 UNL1     0.0026
     22 C         -1.305553   5.053523   0.489682 C.3        1 UNL1     0.0016
     23 C         -2.965037   5.841766   3.760596 C.3        1 UNL1     0.0012
     24 C         -2.342325   6.493174   5.005446 C.3        1 UNL1     -0.0339
     25 C         -3.06025   6.049873   6.290796 C.3        1 UNL1     -0.0615
     26 C         -0.855144   6.190245   5.062946 C.3        1 UNL1     -0.0615
     27 C         4.557756   8.934594   -1.63369 C.ar        1 UNL1     0.1347
     28 C         5.40046   8.028354   -2.252262 C.ar        1 UNL1     0.0342
     29 C         4.902435   6.709171   -2.306027 C.ar        1 UNL1     0.1435
     30 C         3.682886   6.337092   -1.739037 C.ar        1 UNL1     0.0774
     31 O         5.65422   5.690739   -2.777855 O.3        1 UNL1     -0.4436
     32 C         5.036132   4.508142   -2.248418 C.3        1 UNL1     0.3143
     33 C         3.604225   4.907322   -1.954292 C.2        1 UNL1     0.2504
     34 C         6.811847   8.296919   -2.694934 C.3        1 UNL1     -0.0327
     35 O         4.991074   3.541485   -3.305204 O.2        1 UNL1     -0.4528
     36 C         5.198334   0.146698   -1.619809 C.3        1 UNL1     0.0854
     37 C         4.259329   -0.476993   -0.516722 C.3        1 UNL1     0.0236
     38 C         3.627832   -1.90207   -0.893699 C.3        1 UNL1     0.1131
     39 C         2.891666   -2.092446   -2.280813 C.3        1 UNL1     0.0200
     40 C         1.839064   -0.92813   -2.845469 C.3        1 UNL1     0.0661
     41 C         0.568405   -0.227251   -1.966945 C.3        1 UNL1     0.0091
     42 C         -0.143643   1.461561   -2.046335 C.3        1 UNL1     0.0661
     43 C         2.555135   9.559835   -0.267589 C.2        1 UNL1     0.2131
     44 O         3.007338   10.607563   0.157283 O.2        1 UNL1     -0.2851
     45 O         4.911905   10.281889   -1.605182 O.3        1 UNL1     -0.5056
     46 O         2.617264   4.206633   -1.926061 O.2        1 UNL1     -0.2836
     47 C         -0.912103   2.691059   -4.285893 C.3        1 UNL1     -0.0566
     48 O         -1.549129   0.990341   -2.087295 O.3        1 UNL1     -0.3909
     49 C         0.743475   -0.563902   -0.502871 C.3        1 UNL1     -0.0577
     50 O         2.534378   0.068229   -3.567639 O.3        1 UNL1     -0.3910
     51 O         5.229219   -0.529289   -2.856547 O.3        1 UNL1     -0.3753
     52 C         3.441946   0.620459   0.239872 C.3        1 UNL1     -0.0564
     53 O         3.038298   -2.627278   0.280546 O.3        1 UNL1     -0.4608
     54 C         1.894322   -2.268277   0.944148 C.2        1 UNL1     0.3042
     55 O         1.809085   -1.699942   2.032067 O.2        1 UNL1     -0.2512
     56 C         0.635923   -2.578926   0.184779 C.3        1 UNL1     0.0332
     57 C         3.953693   -2.699727   -3.311096 C.3        1 UNL1     -0.0567
     58 C         5.752643   4.200559   -0.912928 C.3        1 UNL1     0.0210
     59 C         6.29672   -0.146418   -3.722408 C.3        1 UNL1     0.0372
     60 C         4.946685   1.582259   -1.921465 C.2        1 UNL1     -0.0208
     61 C         4.862629   2.218025   -3.090858 C.2        1 UNL1     0.0882
     62 H         0.627815   3.277277   -2.918663 H        1 UNL1     0.0365
     63 H         0.349435   5.296441   -2.793343 H        1 UNL1     0.0576
     64 H         -2.605557   5.980655   -2.248687 H        1 UNL1     0.0615
     65 H         -0.021882   7.724233   -2.454654 H        1 UNL1     0.0622
     66 H         6.205487   0.102869   -1.181898 H        1 UNL1     0.0645
     67 H         4.950158   -0.751975   0.299182 H        1 UNL1     0.0362
     68 H         4.550223   -2.497964   -0.968709 H        1 UNL1     0.0741
     69 H         2.264158   -2.971884   -2.223976 H        1 UNL1     0.0359
     70 H         1.307436   -1.511778   -3.621218 H        1 UNL1     0.0600
     71 H         -0.2594   -0.907258   -2.248522 H        1 UNL1     0.0348
     72 H         0.399423   1.316686   -2.991537 H        1 UNL1     0.0602
     73 H         4.955296   2.136183   -1.015737 H        1 UNL1     0.0628
     74 H         4.789218   1.721321   -4.058915 H        1 UNL1     0.1022
     75 H         -3.585515   9.642595   -1.831547 H        1 UNL1     0.0279
     76 H         -3.124902   9.457222   -0.18632 H        1 UNL1     0.0279
     77 H         -2.556298   10.853637   -1.187326 H        1 UNL1     0.0279
     78 H         -0.606135   9.661795   0.617358 H        1 UNL1     0.1553
     79 H         -1.064957   7.754451   0.896191 H        1 UNL1     0.1484
     80 H         0.541537   4.625051   2.333384 H        1 UNL1     0.0317
     81 H         1.343604   6.189212   2.329808 H        1 UNL1     0.0317
     82 H         -0.804555   7.357153   2.891084 H        1 UNL1     0.0428
     83 H         -0.372771   6.134053   4.065517 H        1 UNL1     0.0428
     84 H         -3.304878   5.050995   1.178844 H        1 UNL1     0.0428
     85 H         -2.693036   6.665245   1.08414 H        1 UNL1     0.0428
     86 H         -1.726177   4.994951   -0.497047 H        1 UNL1     0.0317
     87 H         -1.135371   4.003132   0.755787 H        1 UNL1     0.0317
     88 H         -3.695216   6.539106   3.329493 H        1 UNL1     0.0429
     89 H         -3.510872   4.926554   4.023702 H        1 UNL1     0.0429
     90 H         -2.422826   7.583226   4.918734 H        1 UNL1     0.0308
     91 H         -3.219422   4.967477   6.304353 H        1 UNL1     0.0233
     92 H         -2.485309   6.338905   7.173697 H        1 UNL1     0.0233
     93 H         -4.046007   6.517783   6.40115 H        1 UNL1     0.0233
     94 H         -0.487205   6.297663   6.089064 H        1 UNL1     0.0233
     95 H         -0.671073   5.160231   4.744903 H        1 UNL1     0.0233
     96 H         -0.285117   6.865746   4.418946 H        1 UNL1     0.0233
     97 H         6.938137   8.152334   -3.763754 H        1 UNL1     0.0280
     98 H         7.119056   9.331424   -2.493241 H        1 UNL1     0.0280
     99 H         7.499538   7.613697   -2.170164 H        1 UNL1     0.0280
     100 H         5.830572   10.442654   -1.479367 H        1 UNL1     0.2922
     101 H         -0.039297   2.497162   -4.909007 H        1 UNL1     0.0236
     102 H         -1.596488   3.400448   -4.74997 H        1 UNL1     0.0236
     103 H         -1.463795   1.736261   -4.27209 H        1 UNL1     0.0236
     104 H         -1.676084   0.514125   -2.931138 H        1 UNL1     0.2098
     105 H         0.586319   -1.612085   -0.261155 H        1 UNL1     0.0234
     106 H         1.675747   -0.210359   -0.062641 H        1 UNL1     0.0234
     107 H         0.0   0.0   0.0 H        1 UNL1     0.0234
     108 H         2.776446   -0.315884   -4.432295 H        1 UNL1     0.2098
     109 H         3.688729   0.659137   1.310065 H        1 UNL1     0.0234
     110 H         3.552964   1.618276   -0.198054 H        1 UNL1     0.0234
     111 H         2.362124   0.426784   0.190651 H        1 UNL1     0.0234
     112 H         -0.235782   -2.249634   0.758402 H        1 UNL1     0.0342
     113 H         0.638456   -2.136892   -0.810431 H        1 UNL1     0.0342
     114 H         0.567891   -3.668933   0.064692 H        1 UNL1     0.0342
     115 H         3.615473   -3.657958   -3.728935 H        1 UNL1     0.0234
     116 H         4.186466   -2.039908   -4.149251 H        1 UNL1     0.0234
     117 H         4.905085   -2.997603   -2.837742 H        1 UNL1     0.0234
     118 H         5.31706   3.324744   -0.400852 H        1 UNL1     0.0309
     119 H         6.830423   4.04831   -1.028743 H        1 UNL1     0.0309
     120 H         5.637263   5.00552   -0.178876 H        1 UNL1     0.0309
     121 H         5.980113   -0.348328   -4.74532 H        1 UNL1     0.0524
     122 H         6.526707   0.929798   -3.652396 H        1 UNL1     0.0524
     123 H         7.192664   -0.71438   -3.488318 H        1 UNL1     0.0524
@<TRIPOS>BOND
     1     1     2    1
     2     1    42    1
     3     2     3    2
     4     3     4    1
     5     4     5    2
     6     5     7    1
     7     6    75    1
     8     6    76    1
     9     6    77    1
    10     7     9   am
    11     9    10    1
    12    10    11    2
    13    10    43    1
    14    11    14    1
    15    11    15    1
    16    12    13   ar
    17    12    27   ar
    18    12    43    1
    19    13    14    1
    20    13    30   ar
    21    14    17    2
    22    15    16    1
    23    16    17    1
    24    16    18    1
    25    16    22    1
    26    18    19    1
    27    19    20    1
    28    20    21    1
    29    21    22    1
    30    23    24    1
    31    23    88    1
    32    23    89    1
    33    24    25    1
    34    24    26    1
    35    24    90    1
    36    25    91    1
    37    25    92    1
    38    25    93    1
    39    26    94    1
    40    26    95    1
    41    26    96    1
    42    27    28   ar
    43    28    29   ar
    44    29    30   ar
    45    29    31    1
    46    30    33    1
    47    31    32    1
    48    32    33    1
    49    32    35    1
    50    34    97    1
    51    34    98    1
    52    34    99    1
    53    35    61    1
    54    36    37    1
    55    36    60    1
    56    37    38    1
    57    38    39    1
    58    39    40    1
    59    40    41    1
    60    41    42    1
    61    45   100    1
    62    47   101    1
    63    47   102    1
    64    47   103    1
    65    48   104    1
    66    49   105    1
    67    49   106    1
    68    49   107    1
    69    50   108    1
    70    51    59    1
    71    52   109    1
    72    52   110    1
    73    52   111    1
    74    53    54    1
    75    54    55    2
    76    54    56    1
    77    56   112    1
    78    56   113    1
    79    56   114    1
    80    57   115    1
    81    57   116    1
    82    57   117    1
    83    58   118    1
    84    58   119    1
    85    58   120    1
    86    59   121    1
    87    59   122    1
    88    59   123    1
    89    60    61    2
    90     1    47    1
    91     1    62    1
    92     2    63    1
    93     3    64    1
    94     4    65    1
    95     5     6    1
    96     7     8    2
    97     9    78    1
    98    15    79    1
    99    18    80    1
   100    18    81    1
   101    19    82    1
   102    19    83    1
   103    20    23    1
   104    21    84    1
   105    21    85    1
   106    22    86    1
   107    22    87    1
   108    27    45    1
   109    28    34    1
   110    32    58    1
   111    33    46    2
   112    36    51    1
   113    36    66    1
   114    37    52    1
   115    37    67    1
   116    38    53    1
   117    38    68    1
   118    42    48    1
   119    42    72    1
   120    43    44    2
   121    60    73    1
   122    61    74    1
   123    39    69    1
   124    39    57    1
   125    40    70    1
   126    40    50    1
   127    41    71    1
   128    41    49    1
