@<TRIPOS>MOLECULE
*****
 123 128 0 0 0
SMALL
GASTEIGER

@<TRIPOS>ATOM
     1 C         -0.629454   4.077576   -0.414125 C.3        1 UNL1     0.0009
     2 C         -2.244144   4.941972   -0.701584 C.2        1 UNL1     -0.0787
     3 C         -3.185349   5.579639   -1.597999 C.2        1 UNL1     -0.0649
     4 C         -4.741143   6.145086   -1.242846 C.2        1 UNL1     -0.0542
     5 C         -5.996434   6.510356   -1.788648 C.2        1 UNL1     0.0115
     6 C         -6.755662   6.79492   -3.113759 C.3        1 UNL1     -0.0348
     7 C         -7.272819   6.587201   -0.818119 C.2        1 UNL1     0.2441
     8 O         -7.726891   7.642678   -0.398223 O.2        1 UNL1     -0.2702
     9 N         -7.990906   5.385168   -0.69314 N.am        1 UNL1     -0.2772
     10 C         -7.469185   4.617526   0.322663 C.2        1 UNL1     0.1049
     11 C         -6.417388   3.880809   0.01413 C.2        1 UNL1     0.0801
     12 C         -6.744034   4.719956   2.714524 C.ar        1 UNL1     0.0753
     13 C         -5.524295   4.103371   2.289474 C.ar        1 UNL1     0.0305
     14 C         -5.376487   3.544776   0.947395 C.2        1 UNL1     0.0924
     15 N         -5.888468   3.590378   -1.186878 N.pl3        1 UNL1     -0.3170
     16 C         -4.854485   2.610138   -0.986218 C.3        1 UNL1     0.1275
     17 N         -4.36689   2.857796   0.420423 N.2        1 UNL1     -0.2557
     18 C         -5.527194   1.240916   -0.966319 C.3        1 UNL1     0.0016
     19 C         -6.315182   1.067432   -2.254949 C.3        1 UNL1     0.0026
     20 N         -5.400478   1.185482   -3.382073 N.3        1 UNL1     -0.3018
     21 C         -4.659391   2.446546   -3.45191 C.3        1 UNL1     0.0026
     22 C         -3.871558   2.598137   -2.149514 C.3        1 UNL1     0.0016
     23 C         -5.985668   0.742905   -4.632002 C.3        1 UNL1     0.0012
     24 C         -6.167343   -0.783119   -4.631162 C.3        1 UNL1     -0.0339
     25 C         -5.962962   -1.374557   -6.035614 C.3        1 UNL1     -0.0615
     26 C         -5.233275   -1.418219   -3.615808 C.3        1 UNL1     -0.0615
     27 C         -6.919454   5.141116   4.030567 C.ar        1 UNL1     0.1347
     28 C         -5.965606   4.963815   5.016867 C.ar        1 UNL1     0.0342
     29 C         -4.754304   4.399016   4.564194 C.ar        1 UNL1     0.1435
     30 C         -4.550883   4.005361   3.240987 C.ar        1 UNL1     0.0774
     31 O         -3.768977   4.061819   5.424679 O.3        1 UNL1     -0.4436
     32 C         -2.958296   3.125454   4.698806 C.3        1 UNL1     0.3143
     33 C         -3.226885   3.419035   3.236656 C.2        1 UNL1     0.2504
     34 C         -6.176539   5.158338   6.492593 C.3        1 UNL1     -0.0327
     35 O         -1.588674   3.465156   4.947785 O.2        1 UNL1     -0.4528
     36 C         0.347778   0.207814   4.728784 C.3        1 UNL1     0.0854
     37 C         0.439347   -0.81848   3.534691 C.3        1 UNL1     0.0236
     38 C         1.92872   -1.149849   3.041023 C.3        1 UNL1     0.1131
     39 C         2.925627   0.031526   2.705167 C.3        1 UNL1     0.0200
     40 C         2.405199   1.353485   1.831087 C.3        1 UNL1     0.0661
     41 C         1.553643   1.302567   0.364843 C.3        1 UNL1     0.0091
     42 C         0.287548   2.442133   -0.316184 C.3        1 UNL1     0.0661
     43 C         -7.849704   4.815023   1.729274 C.2        1 UNL1     0.2131
     44 O         -9.019963   4.941687   2.04102 O.2        1 UNL1     -0.2851
     45 O         -8.119064   5.77327   4.351123 O.3        1 UNL1     -0.5056
     46 O         -2.502219   3.23176   2.285005 O.2        1 UNL1     -0.2836
     47 C         0.543197   5.093406   -0.468524 C.3        1 UNL1     -0.0566
     48 O         0.920081   2.527679   -1.654728 O.3        1 UNL1     -0.3909
     49 C         1.044876   -0.104609   0.144603 C.3        1 UNL1     -0.0577
     50 O         1.839527   2.327623   2.684781 O.3        1 UNL1     -0.3910
     51 O         1.555819   0.834699   5.096323 O.3        1 UNL1     -0.3753
     52 C         -0.750867   -0.654471   2.533971 C.3        1 UNL1     -0.0564
     53 O         2.014652   -2.365769   2.165535 O.3        1 UNL1     -0.4608
     54 C         3.136663   -2.79144   1.503852 C.2        1 UNL1     0.3042
     55 O         3.392253   -2.662138   0.307276 O.2        1 UNL1     -0.2512
     56 C         4.157648   -3.431122   2.401132 C.3        1 UNL1     0.0332
     57 C         3.809917   0.30209   4.010158 C.3        1 UNL1     -0.0567
     58 C         -3.50746   1.71927   5.034358 C.3        1 UNL1     0.0210
     59 C         1.620777   1.259807   6.456811 C.3        1 UNL1     0.0372
     60 C         -0.660504   1.288429   4.55329 C.2        1 UNL1     -0.0208
     61 C         -0.570501   2.599734   4.779396 C.2        1 UNL1     0.0882
     62 H         -0.898845   3.966932   0.643182 H        1 UNL1     0.0365
     63 H         -2.615556   5.0252   0.321937 H        1 UNL1     0.0576
     64 H         -3.020209   5.605588   -2.677426 H        1 UNL1     0.0615
     65 H         -4.772216   6.153433   -0.149938 H        1 UNL1     0.0622
     66 H         0.001291   -0.391891   5.582216 H        1 UNL1     0.0645
     67 H         0.138029   -1.780544   3.984358 H        1 UNL1     0.0362
     68 H         2.326191   -1.615957   3.955507 H        1 UNL1     0.0741
     69 H         3.730134   -0.355132   2.09388 H        1 UNL1     0.0359
     70 H         3.381479   1.780894   1.532326 H        1 UNL1     0.0600
     71 H         2.398258   1.342453   -0.350693 H        1 UNL1     0.0348
     72 H         0.819157   3.009394   0.461583 H        1 UNL1     0.0602
     73 H         -1.599395   0.854494   4.313641 H        1 UNL1     0.0628
     74 H         0.362873   3.129508   4.972759 H        1 UNL1     0.1022
     75 H         -6.159792   7.47548   -3.768596 H        1 UNL1     0.0279
     76 H         -6.933894   5.941191   -3.763721 H        1 UNL1     0.0279
     77 H         -7.670179   7.38662   -2.961275 H        1 UNL1     0.0279
     78 H         -7.911837   4.848379   -1.554349 H        1 UNL1     0.1553
     79 H         -6.386737   3.685634   -2.052665 H        1 UNL1     0.1484
     80 H         -4.758209   0.46628   -0.859706 H        1 UNL1     0.0317
     81 H         -6.191791   1.144007   -0.10112 H        1 UNL1     0.0317
     82 H         -7.134841   1.796877   -2.33229 H        1 UNL1     0.0428
     83 H         -6.788108   0.085544   -2.219075 H        1 UNL1     0.0428
     84 H         -3.922231   2.477921   -4.260256 H        1 UNL1     0.0428
     85 H         -5.321053   3.298483   -3.661009 H        1 UNL1     0.0428
     86 H         -3.242705   3.457688   -2.289887 H        1 UNL1     0.0317
     87 H         -3.155358   1.773769   -2.046699 H        1 UNL1     0.0317
     88 H         -6.973045   1.212357   -4.731982 H        1 UNL1     0.0429
     89 H         -5.385673   1.069781   -5.491031 H        1 UNL1     0.0429
     90 H         -7.182997   -1.023741   -4.295362 H        1 UNL1     0.0308
     91 H         -5.067477   -0.965496   -6.512982 H        1 UNL1     0.0233
     92 H         -5.878652   -2.462781   -5.987977 H        1 UNL1     0.0233
     93 H         -6.805458   -1.162131   -6.704876 H        1 UNL1     0.0233
     94 H         -5.064591   -2.471487   -3.864824 H        1 UNL1     0.0233
     95 H         -4.265317   -0.909454   -3.629144 H        1 UNL1     0.0233
     96 H         -5.646617   -1.364067   -2.604777 H        1 UNL1     0.0233
     97 H         -5.531536   5.932265   6.897856 H        1 UNL1     0.0280
     98 H         -7.203009   5.469695   6.726414 H        1 UNL1     0.0280
     99 H         -5.961684   4.216446   7.023415 H        1 UNL1     0.0280
     100 H         -8.366961   6.464345   3.762408 H        1 UNL1     0.2922
     101 H         0.897156   5.300743   0.541119 H        1 UNL1     0.0236
     102 H         0.295394   6.005511   -1.010411 H        1 UNL1     0.0236
     103 H         1.421754   4.683937   -0.994515 H        1 UNL1     0.0236
     104 H         0.71514   1.699503   -2.131274 H        1 UNL1     0.2098
     105 H         1.454493   -0.598021   -0.733219 H        1 UNL1     0.0234
     106 H         1.119858   -0.757268   1.014281 H        1 UNL1     0.0234
     107 H         -0.0   0.0   0.0 H        1 UNL1     0.0234
     108 H         1.195518   2.837501   2.156534 H        1 UNL1     0.2098
     109 H         -1.525036   0.025437   2.916201 H        1 UNL1     0.0234
     110 H         -0.433876   -0.326029   1.538287 H        1 UNL1     0.0234
     111 H         -1.259312   -1.610224   2.34967 H        1 UNL1     0.0234
     112 H         5.033397   -3.72798   1.816081 H        1 UNL1     0.0342
     113 H         4.441717   -2.78085   3.227143 H        1 UNL1     0.0342
     114 H         3.715339   -4.340645   2.830426 H        1 UNL1     0.0342
     115 H         3.428542   -0.245924   4.882754 H        1 UNL1     0.0234
     116 H         4.863903   0.041959   3.893993 H        1 UNL1     0.0234
     117 H         3.753948   1.343409   4.371357 H        1 UNL1     0.0234
     118 H         -2.847249   1.171295   5.729233 H        1 UNL1     0.0309
     119 H         -4.521527   1.741027   5.445936 H        1 UNL1     0.0309
     120 H         -3.550196   1.064366   4.157215 H        1 UNL1     0.0309
     121 H         2.326893   2.088009   6.510081 H        1 UNL1     0.0524
     122 H         0.649308   1.627489   6.827077 H        1 UNL1     0.0524
     123 H         1.953185   0.442477   7.090507 H        1 UNL1     0.0524
@<TRIPOS>BOND
     1     1     2    1
     2     1    42    1
     3     2     3    2
     4     3     4    1
     5     4     5    2
     6     5     7    1
     7     6    75    1
     8     6    76    1
     9     6    77    1
    10     7     9   am
    11     9    10    1
    12    10    11    2
    13    10    43    1
    14    11    14    1
    15    11    15    1
    16    12    13   ar
    17    12    27   ar
    18    12    43    1
    19    13    14    1
    20    13    30   ar
    21    14    17    2
    22    15    16    1
    23    16    17    1
    24    16    18    1
    25    16    22    1
    26    18    19    1
    27    19    20    1
    28    20    21    1
    29    21    22    1
    30    23    24    1
    31    23    88    1
    32    23    89    1
    33    24    25    1
    34    24    26    1
    35    24    90    1
    36    25    91    1
    37    25    92    1
    38    25    93    1
    39    26    94    1
    40    26    95    1
    41    26    96    1
    42    27    28   ar
    43    28    29   ar
    44    29    30   ar
    45    29    31    1
    46    30    33    1
    47    31    32    1
    48    32    33    1
    49    32    35    1
    50    34    97    1
    51    34    98    1
    52    34    99    1
    53    35    61    1
    54    36    37    1
    55    36    60    1
    56    37    38    1
    57    38    39    1
    58    39    40    1
    59    40    41    1
    60    41    42    1
    61    45   100    1
    62    47   101    1
    63    47   102    1
    64    47   103    1
    65    48   104    1
    66    49   105    1
    67    49   106    1
    68    49   107    1
    69    50   108    1
    70    51    59    1
    71    52   109    1
    72    52   110    1
    73    52   111    1
    74    53    54    1
    75    54    55    2
    76    54    56    1
    77    56   112    1
    78    56   113    1
    79    56   114    1
    80    57   115    1
    81    57   116    1
    82    57   117    1
    83    58   118    1
    84    58   119    1
    85    58   120    1
    86    59   121    1
    87    59   122    1
    88    59   123    1
    89    60    61    2
    90     1    47    1
    91     1    62    1
    92     2    63    1
    93     3    64    1
    94     4    65    1
    95     5     6    1
    96     7     8    2
    97     9    78    1
    98    15    79    1
    99    18    80    1
   100    18    81    1
   101    19    82    1
   102    19    83    1
   103    20    23    1
   104    21    84    1
   105    21    85    1
   106    22    86    1
   107    22    87    1
   108    27    45    1
   109    28    34    1
   110    32    58    1
   111    33    46    2
   112    36    51    1
   113    36    66    1
   114    37    52    1
   115    37    67    1
   116    38    53    1
   117    38    68    1
   118    42    48    1
   119    42    72    1
   120    43    44    2
   121    60    73    1
   122    61    74    1
   123    39    69    1
   124    39    57    1
   125    40    70    1
   126    40    50    1
   127    41    71    1
   128    41    49    1
