@<TRIPOS>MOLECULE
*****
 123 128 0 0 0
SMALL
GASTEIGER

@<TRIPOS>ATOM
     1 C         -0.139058   4.037294   -1.285271 C.3        1 UNL1     0.0009
     2 C         -1.54643   4.912059   -2.116611 C.2        1 UNL1     -0.0787
     3 C         -2.148501   5.473687   -3.307465 C.2        1 UNL1     -0.0649
     4 C         -3.703095   6.121323   -3.481137 C.2        1 UNL1     -0.0542
     5 C         -4.723006   6.460795   -4.403969 C.2        1 UNL1     0.0115
     6 C         -5.049136   6.618493   -5.914628 C.3        1 UNL1     -0.0348
     7 C         -6.217821   6.683305   -3.86267 C.2        1 UNL1     0.2441
     8 O         -6.708379   7.792056   -3.699728 O.2        1 UNL1     -0.2702
     9 N         -7.013402   5.524629   -3.83671 N.am        1 UNL1     -0.2772
     10 C         -6.854539   4.859703   -2.642575 C.2        1 UNL1     0.1049
     11 C         -5.805453   4.062163   -2.555562 C.2        1 UNL1     0.0801
     12 C         -6.844895   5.206262   -0.165251 C.ar        1 UNL1     0.0753
     13 C         -5.594403   4.510065   -0.15157 C.ar        1 UNL1     0.0305
     14 C         -5.100332   3.801289   -1.329951 C.2        1 UNL1     0.0924
     15 N         -4.971499   3.62411   -3.514289 N.pl3        1 UNL1     -0.3170
     16 C         -4.101093   2.641925   -2.924407 C.3        1 UNL1     0.1275
     17 N         -4.025562   3.030081   -1.46792 N.2        1 UNL1     -0.2557
     18 C         -4.833218   1.304117   -2.968721 C.3        1 UNL1     0.0016
     19 C         -5.2253   1.011745   -4.408297 C.3        1 UNL1     0.0026
     20 N         -4.019066   0.976172   -5.223627 N.3        1 UNL1     -0.3018
     21 C         -3.213802   2.198942   -5.196177 C.3        1 UNL1     0.0026
     22 C         -2.827174   2.471105   -3.741413 C.3        1 UNL1     0.0016
     23 C         -4.244932   0.414766   -6.540613 C.3        1 UNL1     0.0012
     24 C         -4.511901   -1.095566   -6.443755 C.3        1 UNL1     -0.0339
     25 C         -3.94779   -1.845602   -7.661655 C.3        1 UNL1     -0.0615
     26 C         -3.950784   -1.641182   -5.142129 C.3        1 UNL1     -0.0615
     27 C         -7.366233   5.776444   0.993722 C.ar        1 UNL1     0.1347
     28 C         -6.749902   5.681747   2.22872 C.ar        1 UNL1     0.0342
     29 C         -5.496349   5.034165   2.208588 C.ar        1 UNL1     0.1435
     30 C         -4.94451   4.489672   1.048321 C.ar        1 UNL1     0.0774
     31 O         -4.823423   4.765684   3.348805 O.3        1 UNL1     -0.4436
     32 C         -3.896613   3.730531   2.987759 C.3        1 UNL1     0.3143
     33 C         -3.713833   3.867288   1.489727 C.2        1 UNL1     0.2504
     34 C         -7.365041   6.04565   3.551323 C.3        1 UNL1     -0.0327
     35 O         -2.638858   4.054854   3.592837 O.2        1 UNL1     -0.4528
     36 C         -0.92402   0.737095   4.270993 C.3        1 UNL1     0.0854
     37 C         -0.554894   -0.418098   3.26263 C.3        1 UNL1     0.0236
     38 C         0.990446   -0.846667   3.262191 C.3        1 UNL1     0.1131
     39 C         2.111999   0.259683   3.119443 C.3        1 UNL1     0.0200
     40 C         1.947338   1.490976   2.00623 C.3        1 UNL1     0.0661
     41 C         1.553197   1.302464   0.367107 C.3        1 UNL1     0.0091
     42 C         0.609194   2.396324   -0.763262 C.3        1 UNL1     0.0661
     43 C         -7.611626   5.223919   -1.435712 C.2        1 UNL1     0.2131
     44 O         -8.812067   5.419367   -1.494705 O.2        1 UNL1     -0.2851
     45 O         -8.566415   6.475865   0.885041 O.3        1 UNL1     -0.5056
     46 O         -2.758417   3.553642   0.815441 O.2        1 UNL1     -0.2836
     47 C         1.059192   5.005315   -1.092622 C.3        1 UNL1     -0.0566
     48 O         1.604753   2.313328   -1.859204 O.3        1 UNL1     -0.3909
     49 C         1.044648   -0.104685   0.146188 C.3        1 UNL1     -0.0577
     50 O         1.220113   2.570583   2.556972 O.3        1 UNL1     -0.3910
     51 O         0.162672   1.364711   4.913355 O.3        1 UNL1     -0.3753
     52 C         -1.393749   -0.331162   1.945924 C.3        1 UNL1     -0.0564
     53 O         1.250763   -2.154562   2.573737 O.3        1 UNL1     -0.4608
     54 C         2.345702   -2.442612   1.801684 C.2        1 UNL1     0.3042
     55 O         2.403953   -2.48198   0.573313 O.2        1 UNL1     -0.2512
     56 C         3.598813   -2.673229   2.59745 C.3        1 UNL1     0.0332
     57 C         2.597313   0.647437   4.593313 C.3        1 UNL1     -0.0567
     58 C         -4.603935   2.387484   3.283481 C.3        1 UNL1     0.0210
     59 C         0.30544   1.047564   6.297154 C.3        1 UNL1     0.0372
     60 C         -1.770997   1.821023   3.702758 C.2        1 UNL1     -0.0208
     61 C         -1.670159   3.146082   3.815869 C.2        1 UNL1     0.0882
     62 H         -0.708053   4.053201   -0.347879 H        1 UNL1     0.0365
     63 H         -2.191346   5.119823   -1.260231 H        1 UNL1     0.0576
     64 H         -1.677919   5.374295   -4.288169 H        1 UNL1     0.0615
     65 H         -4.047357   6.252284   -2.451663 H        1 UNL1     0.0622
     66 H         -1.537756   0.246792   5.039745 H        1 UNL1     0.0645
     67 H         -1.031174   -1.314667   3.696083 H        1 UNL1     0.0362
     68 H         1.078186   -1.219651   4.294037 H        1 UNL1     0.0741
     69 H         3.033419   -0.216483   2.811774 H        1 UNL1     0.0359
     70 H         2.99248   1.853137   1.966488 H        1 UNL1     0.0600
     71 H         2.569025   1.237187   -0.069686 H        1 UNL1     0.0348
     72 H         0.927587   3.030585   0.076771 H        1 UNL1     0.0602
     73 H         -2.625587   1.391288   3.242051 H        1 UNL1     0.0628
     74 H         -0.801648   3.666025   4.221561 H        1 UNL1     0.1022
     75 H         -4.249411   7.203797   -6.429308 H        1 UNL1     0.0279
     76 H         -5.084169   5.703373   -6.501483 H        1 UNL1     0.0279
     77 H         -5.930898   7.250505   -6.095614 H        1 UNL1     0.0279
     78 H         -6.722318   4.893129   -4.58005 H        1 UNL1     0.1553
     79 H         -5.19223   3.637147   -4.493085 H        1 UNL1     0.1484
     80 H         -4.176384   0.52359   -2.566088 H        1 UNL1     0.0317
     81 H         -5.72365   1.324053   -2.331237 H        1 UNL1     0.0317
     82 H         -5.941755   1.752154   -4.793525 H        1 UNL1     0.0428
     83 H         -5.747483   0.054508   -4.416748 H        1 UNL1     0.0428
     84 H         -2.27442   2.118078   -5.751906 H        1 UNL1     0.0428
     85 H         -3.733816   3.041636   -5.672379 H        1 UNL1     0.0428
     86 H         -2.133326   3.29053   -3.77466 H        1 UNL1     0.0317
     87 H         -2.22272   1.64233   -3.353 H        1 UNL1     0.0317
     88 H         -5.130995   0.899396   -6.9711 H        1 UNL1     0.0429
     89 H         -3.40398   0.625876   -7.213671 H        1 UNL1     0.0429
     90 H         -5.593947   -1.266886   -6.398606 H        1 UNL1     0.0308
     91 H         -2.929486   -1.519153   -7.893151 H        1 UNL1     0.0233
     92 H         -3.947362   -2.923774   -7.485151 H        1 UNL1     0.0233
     93 H         -4.54697   -1.684018   -8.565928 H        1 UNL1     0.0233
     94 H         -3.782071   -2.720193   -5.226438 H        1 UNL1     0.0233
     95 H         -2.990917   -1.166165   -4.920821 H        1 UNL1     0.0233
     96 H         -4.633941   -1.462441   -4.307074 H        1 UNL1     0.0233
     97 H         -7.385658   5.203498   4.236585 H        1 UNL1     0.0280
     98 H         -6.803948   6.837301   4.064859 H        1 UNL1     0.0280
     99 H         -8.400702   6.389086   3.394627 H        1 UNL1     0.0280
     100 H         -8.591412   7.104144   0.184853 H        1 UNL1     0.2922
     101 H         1.119012   5.313181   -0.048929 H        1 UNL1     0.0236
     102 H         1.034273   5.858363   -1.769876 H        1 UNL1     0.0236
     103 H         2.025391   4.513784   -1.29523 H        1 UNL1     0.0236
     104 H         2.276373   1.65319   -1.598217 H        1 UNL1     0.2098
     105 H         1.45555   -0.598186   -0.730983 H        1 UNL1     0.0234
     106 H         1.118262   -0.757295   1.01602 H        1 UNL1     0.0234
     107 H         -0.0   0.0   0.0 H        1 UNL1     0.0234
     108 H         1.184091   3.272185   1.878573 H        1 UNL1     0.2098
     109 H         -2.47281   -0.421625   2.133422 H        1 UNL1     0.0234
     110 H         -1.197046   0.579286   1.369612 H        1 UNL1     0.0234
     111 H         -1.143391   -1.144707   1.252087 H        1 UNL1     0.0234
     112 H         4.435956   -2.876624   1.922789 H        1 UNL1     0.0342
     113 H         3.823831   -1.837563   3.258414 H        1 UNL1     0.0342
     114 H         3.448087   -3.562571   3.224759 H        1 UNL1     0.0342
     115 H         3.668041   0.892479   4.619472 H        1 UNL1     0.0234
     116 H         2.05708   1.48894   5.031573 H        1 UNL1     0.0234
     117 H         2.553738   -0.193758   5.306357 H        1 UNL1     0.0234
     118 H         -4.149481   1.859338   4.13995 H        1 UNL1     0.0309
     119 H         -5.678612   2.497627   3.459946 H        1 UNL1     0.0309
     120 H         -4.503528   1.669709   2.462005 H        1 UNL1     0.0309
     121 H         0.824298   1.878659   6.774044 H        1 UNL1     0.0524
     122 H         -0.667874   0.930242   6.802063 H        1 UNL1     0.0524
     123 H         0.876869   0.131322   6.415747 H        1 UNL1     0.0524
@<TRIPOS>BOND
     1     1     2    1
     2     1    42    1
     3     2     3    2
     4     3     4    1
     5     4     5    2
     6     5     7    1
     7     6    75    1
     8     6    76    1
     9     6    77    1
    10     7     9   am
    11     9    10    1
    12    10    11    2
    13    10    43    1
    14    11    14    1
    15    11    15    1
    16    12    13   ar
    17    12    27   ar
    18    12    43    1
    19    13    14    1
    20    13    30   ar
    21    14    17    2
    22    15    16    1
    23    16    17    1
    24    16    18    1
    25    16    22    1
    26    18    19    1
    27    19    20    1
    28    20    21    1
    29    21    22    1
    30    23    24    1
    31    23    88    1
    32    23    89    1
    33    24    25    1
    34    24    26    1
    35    24    90    1
    36    25    91    1
    37    25    92    1
    38    25    93    1
    39    26    94    1
    40    26    95    1
    41    26    96    1
    42    27    28   ar
    43    28    29   ar
    44    29    30   ar
    45    29    31    1
    46    30    33    1
    47    31    32    1
    48    32    33    1
    49    32    35    1
    50    34    97    1
    51    34    98    1
    52    34    99    1
    53    35    61    1
    54    36    37    1
    55    36    60    1
    56    37    38    1
    57    38    39    1
    58    39    40    1
    59    40    41    1
    60    41    42    1
    61    45   100    1
    62    47   101    1
    63    47   102    1
    64    47   103    1
    65    48   104    1
    66    49   105    1
    67    49   106    1
    68    49   107    1
    69    50   108    1
    70    51    59    1
    71    52   109    1
    72    52   110    1
    73    52   111    1
    74    53    54    1
    75    54    55    2
    76    54    56    1
    77    56   112    1
    78    56   113    1
    79    56   114    1
    80    57   115    1
    81    57   116    1
    82    57   117    1
    83    58   118    1
    84    58   119    1
    85    58   120    1
    86    59   121    1
    87    59   122    1
    88    59   123    1
    89    60    61    2
    90     1    47    1
    91     1    62    1
    92     2    63    1
    93     3    64    1
    94     4    65    1
    95     5     6    1
    96     7     8    2
    97     9    78    1
    98    15    79    1
    99    18    80    1
   100    18    81    1
   101    19    82    1
   102    19    83    1
   103    20    23    1
   104    21    84    1
   105    21    85    1
   106    22    86    1
   107    22    87    1
   108    27    45    1
   109    28    34    1
   110    32    58    1
   111    33    46    2
   112    36    51    1
   113    36    66    1
   114    37    52    1
   115    37    67    1
   116    38    53    1
   117    38    68    1
   118    42    48    1
   119    42    72    1
   120    43    44    2
   121    60    73    1
   122    61    74    1
   123    39    69    1
   124    39    57    1
   125    40    70    1
   126    40    50    1
   127    41    71    1
   128    41    49    1
