@<TRIPOS>MOLECULE
*****
 123 128 0 0 0
SMALL
GASTEIGER

@<TRIPOS>ATOM
     1 C         5.168565   1.745824   0.48698 C.3        1 UNL1     0.0009
     2 C         6.605113   2.550856   -0.36466 C.2        1 UNL1     -0.0787
     3 C         7.886401   2.451722   -1.031383 C.2        1 UNL1     -0.0649
     4 C         8.764067   3.686152   -1.78785 C.2        1 UNL1     -0.0542
     5 C         9.783545   3.977982   -2.727306 C.2        1 UNL1     0.0115
     6 C         10.910648   3.351662   -3.593727 C.3        1 UNL1     -0.0348
     7 C         9.879384   5.461083   -3.334114 C.2        1 UNL1     0.2441
     8 O         10.704106   6.282244   -2.957216 O.2        1 UNL1     -0.2702
     9 N         9.128376   5.668365   -4.50423 N.am        1 UNL1     -0.2772
     10 C         7.846164   6.05594   -4.189523 C.2        1 UNL1     0.1049
     11 C         6.999968   5.08513   -3.896774 C.2        1 UNL1     0.0801
     12 C         6.549944   7.663663   -2.778008 C.ar        1 UNL1     0.0753
     13 C         5.790496   6.536317   -2.329747 C.ar        1 UNL1     0.0305
     14 C         5.906057   5.230441   -2.975025 C.2        1 UNL1     0.0924
     15 N         7.121586   3.756047   -4.055755 N.pl3        1 UNL1     -0.3170
     16 C         5.85158   3.157763   -3.740486 C.3        1 UNL1     0.1275
     17 N         5.216583   4.113567   -2.76021 N.2        1 UNL1     -0.2557
     18 C         4.997775   3.217202   -5.003492 C.3        1 UNL1     0.0016
     19 C         5.751314   2.532439   -6.132593 C.3        1 UNL1     0.0026
     20 N         6.020851   1.154219   -5.746735 N.3        1 UNL1     -0.3018
     21 C         6.78508   0.993511   -4.507987 C.3        1 UNL1     0.0026
     22 C         6.007674   1.684717   -3.386483 C.3        1 UNL1     0.0016
     23 C         6.463942   0.334218   -6.85665 C.3        1 UNL1     0.0012
     24 C         5.307558   0.085353   -7.837772 C.3        1 UNL1     -0.0339
     25 C         5.382844   1.03153   -9.047375 C.3        1 UNL1     -0.0615
     26 C         5.293569   -1.371319   -8.267528 C.3        1 UNL1     -0.0615
     27 C         6.346546   8.931575   -2.238427 C.ar        1 UNL1     0.1347
     28 C         5.388424   9.201904   -1.277712 C.ar        1 UNL1     0.0342
     29 C         4.686478   8.067989   -0.816549 C.ar        1 UNL1     0.1435
     30 C         4.904676   6.785739   -1.321965 C.ar        1 UNL1     0.0774
     31 O         3.646237   8.182375   0.037746 O.3        1 UNL1     -0.4436
     32 C         2.923634   6.950009   -0.10365 C.3        1 UNL1     0.3143
     33 C         3.935854   5.956152   -0.636445 C.2        1 UNL1     0.2504
     34 C         4.942836   10.568372   -0.836897 C.3        1 UNL1     -0.0327
     35 O         2.563753   6.513755   1.212945 O.2        1 UNL1     -0.4528
     36 C         -0.680881   4.583646   0.819093 C.3        1 UNL1     0.0854
     37 C         -0.987732   3.323121   -0.077813 C.3        1 UNL1     0.0236
     38 C         -1.588492   2.0626   0.710804 C.3        1 UNL1     0.1131
     39 C         -0.862049   1.531395   2.011716 C.3        1 UNL1     0.0200
     40 C         0.799079   1.38476   2.051585 C.3        1 UNL1     0.0661
     41 C         1.757009   0.615108   0.882134 C.3        1 UNL1     0.0091
     42 C         3.464385   0.976447   0.31671 C.3        1 UNL1     0.0661
     43 C         7.498956   7.455152   -3.899686 C.2        1 UNL1     0.2131
     44 O         7.898859   8.352849   -4.618682 O.2        1 UNL1     -0.2851
     45 O         7.159131   9.966071   -2.697734 O.3        1 UNL1     -0.5056
     46 O         3.951152   4.752629   -0.505483 O.2        1 UNL1     -0.2836
     47 C         5.565791   1.316322   1.924937 C.3        1 UNL1     -0.0566
     48 O         3.912082   -0.434941   0.398372 O.3        1 UNL1     -0.3909
     49 C         0.921678   0.382865   -0.357132 C.3        1 UNL1     -0.0577
     50 O         1.400396   2.602291   2.443708 O.3        1 UNL1     -0.3910
     51 O         -0.803983   4.394286   2.210646 O.3        1 UNL1     -0.3753
     52 C         0.055696   3.161767   -1.231145 C.3        1 UNL1     -0.0564
     53 O         -2.192501   1.023865   -0.188378 O.3        1 UNL1     -0.4608
     54 C         -2.427504   -0.282675   0.151707 C.2        1 UNL1     0.3042
     55 O         -1.859418   -1.282255   -0.286421 O.2        1 UNL1     -0.2512
     56 C         -3.466775   -0.447451   1.223845 C.3        1 UNL1     0.0332
     57 C         -1.581625   2.201078   3.273425 C.3        1 UNL1     -0.0567
     58 C         1.847734   7.195629   -1.186996 C.3        1 UNL1     0.0210
     59 C         -1.115807   5.573623   2.950778 C.3        1 UNL1     0.0372
     60 C         0.648346   5.211811   0.587306 C.2        1 UNL1     -0.0208
     61 C         1.562266   5.646586   1.455905 C.2        1 UNL1     0.0882
     62 H         4.693367   2.730326   0.574461 H        1 UNL1     0.0365
     63 H         6.339649   3.604849   -0.259323 H        1 UNL1     0.0576
     64 H         8.343237   1.484532   -1.252632 H        1 UNL1     0.0615
     65 H         8.27787   4.601931   -1.440798 H        1 UNL1     0.0622
     66 H         -1.425285   5.330615   0.50934 H        1 UNL1     0.0645
     67 H         -1.853565   3.632955   -0.688464 H        1 UNL1     0.0362
     68 H         -2.534989   2.500165   1.063227 H        1 UNL1     0.0741
     69 H         -1.194086   0.520551   2.207559 H        1 UNL1     0.0359
     70 H         0.911125   0.724508   2.932819 H        1 UNL1     0.0600
     71 H         1.800258   -0.406012   1.309218 H        1 UNL1     0.0348
     72 H         3.359616   1.464892   1.296384 H        1 UNL1     0.0602
     73 H         0.765538   5.408801   -0.449376 H        1 UNL1     0.0628
     74 H         1.545442   5.436121   2.525792 H        1 UNL1     0.1022
     75 H         10.935887   2.242998   -3.462344 H        1 UNL1     0.0279
     76 H         10.809656   3.457596   -4.671525 H        1 UNL1     0.0279
     77 H         11.916979   3.633567   -3.250903 H        1 UNL1     0.0279
     78 H         9.065374   4.798366   -5.028834 H        1 UNL1     0.1553
     79 H         7.786074   3.327506   -4.673608 H        1 UNL1     0.1484
     80 H         4.036325   2.726941   -4.808495 H        1 UNL1     0.0317
     81 H         4.771637   4.254058   -5.274495 H        1 UNL1     0.0317
     82 H         6.682129   3.063079   -6.381424 H        1 UNL1     0.0428
     83 H         5.125479   2.587841   -7.023834 H        1 UNL1     0.0428
     84 H         6.904956   -0.049466   -4.19873 H        1 UNL1     0.0428
     85 H         7.815332   1.360841   -4.612702 H        1 UNL1     0.0428
     86 H         6.524664   1.434171   -2.478773 H        1 UNL1     0.0317
     87 H         5.028014   1.207754   -3.260518 H        1 UNL1     0.0317
     88 H         7.259939   0.875391   -7.384679 H        1 UNL1     0.0429
     89 H         6.896192   -0.61178   -6.505904 H        1 UNL1     0.0429
     90 H         4.355398   0.254334   -7.321003 H        1 UNL1     0.0308
     91 H         6.337374   0.930543   -9.572519 H        1 UNL1     0.0233
     92 H         4.56655   0.83174   -9.745485 H        1 UNL1     0.0233
     93 H         5.288029   2.08559   -8.759619 H        1 UNL1     0.0233
     94 H         4.600714   -1.511621   -9.10425 H        1 UNL1     0.0233
     95 H         6.290615   -1.671965   -8.601405 H        1 UNL1     0.0233
     96 H         4.983262   -2.026071   -7.448396 H        1 UNL1     0.0233
     97 H         4.143764   10.51939   -0.103198 H        1 UNL1     0.0280
     98 H         5.753926   11.13448   -0.360546 H        1 UNL1     0.0280
     99 H         4.57764   11.136368   -1.708165 H        1 UNL1     0.0280
     100 H         6.692351   10.717457   -3.018917 H        1 UNL1     0.2922
     101 H         4.699968   0.894765   2.435129 H        1 UNL1     0.0236
     102 H         6.028663   2.118085   2.499314 H        1 UNL1     0.0236
     103 H         6.312324   0.504608   1.923357 H        1 UNL1     0.0236
     104 H         4.326859   -0.56262   1.273945 H        1 UNL1     0.2098
     105 H         0.708847   1.281786   -0.930241 H        1 UNL1     0.0234
     106 H         1.290223   -0.405267   -1.0136 H        1 UNL1     0.0234
     107 H         0.0   -0.0   0.0 H        1 UNL1     0.0234
     108 H         1.216736   3.255871   1.741661 H        1 UNL1     0.2098
     109 H         1.082219   3.060073   -0.852174 H        1 UNL1     0.0234
     110 H         -0.171179   2.327081   -1.903134 H        1 UNL1     0.0234
     111 H         0.068146   4.039222   -1.891345 H        1 UNL1     0.0234
     112 H         -3.590677   -1.508204   1.462166 H        1 UNL1     0.0342
     113 H         -3.228758   0.128431   2.116903 H        1 UNL1     0.0342
     114 H         -4.42426   -0.075894   0.833549 H        1 UNL1     0.0342
     115 H         -2.651381   1.953517   3.312442 H        1 UNL1     0.0234
     116 H         -1.144574   1.921207   4.234002 H        1 UNL1     0.0234
     117 H         -1.619534   3.302951   3.224624 H        1 UNL1     0.0234
     118 H         0.946692   7.681798   -0.773752 H        1 UNL1     0.0309
     119 H         2.21638   7.784511   -2.03288 H        1 UNL1     0.0309
     120 H         1.459308   6.263883   -1.612533 H        1 UNL1     0.0309
     121 H         -0.277402   6.261356   2.843744 H        1 UNL1     0.0524
     122 H         -2.014679   6.083572   2.566049 H        1 UNL1     0.0524
     123 H         -1.269641   5.330292   3.99826 H        1 UNL1     0.0524
@<TRIPOS>BOND
     1     1     2    1
     2     1    42    1
     3     2     3    2
     4     3     4    1
     5     4     5    2
     6     5     7    1
     7     6    75    1
     8     6    76    1
     9     6    77    1
    10     7     9   am
    11     9    10    1
    12    10    11    2
    13    10    43    1
    14    11    14    1
    15    11    15    1
    16    12    13   ar
    17    12    27   ar
    18    12    43    1
    19    13    14    1
    20    13    30   ar
    21    14    17    2
    22    15    16    1
    23    16    17    1
    24    16    18    1
    25    16    22    1
    26    18    19    1
    27    19    20    1
    28    20    21    1
    29    21    22    1
    30    23    24    1
    31    23    88    1
    32    23    89    1
    33    24    25    1
    34    24    26    1
    35    24    90    1
    36    25    91    1
    37    25    92    1
    38    25    93    1
    39    26    94    1
    40    26    95    1
    41    26    96    1
    42    27    28   ar
    43    28    29   ar
    44    29    30   ar
    45    29    31    1
    46    30    33    1
    47    31    32    1
    48    32    33    1
    49    32    35    1
    50    34    97    1
    51    34    98    1
    52    34    99    1
    53    35    61    1
    54    36    37    1
    55    36    60    1
    56    37    38    1
    57    38    39    1
    58    39    40    1
    59    40    41    1
    60    41    42    1
    61    45   100    1
    62    47   101    1
    63    47   102    1
    64    47   103    1
    65    48   104    1
    66    49   105    1
    67    49   106    1
    68    49   107    1
    69    50   108    1
    70    51    59    1
    71    52   109    1
    72    52   110    1
    73    52   111    1
    74    53    54    1
    75    54    55    2
    76    54    56    1
    77    56   112    1
    78    56   113    1
    79    56   114    1
    80    57   115    1
    81    57   116    1
    82    57   117    1
    83    58   118    1
    84    58   119    1
    85    58   120    1
    86    59   121    1
    87    59   122    1
    88    59   123    1
    89    60    61    2
    90     1    47    1
    91     1    62    1
    92     2    63    1
    93     3    64    1
    94     4    65    1
    95     5     6    1
    96     7     8    2
    97     9    78    1
    98    15    79    1
    99    18    80    1
   100    18    81    1
   101    19    82    1
   102    19    83    1
   103    20    23    1
   104    21    84    1
   105    21    85    1
   106    22    86    1
   107    22    87    1
   108    27    45    1
   109    28    34    1
   110    32    58    1
   111    33    46    2
   112    36    51    1
   113    36    66    1
   114    37    52    1
   115    37    67    1
   116    38    53    1
   117    38    68    1
   118    42    48    1
   119    42    72    1
   120    43    44    2
   121    60    73    1
   122    61    74    1
   123    39    69    1
   124    39    57    1
   125    40    70    1
   126    40    50    1
   127    41    71    1
   128    41    49    1
