@<TRIPOS>MOLECULE
*****
 123 128 0 0 0
SMALL
GASTEIGER

@<TRIPOS>ATOM
     1 C         5.166816   1.758893   0.457793 C.3        1 UNL1     0.0009
     2 C         6.596249   2.568162   -0.401766 C.2        1 UNL1     -0.0787
     3 C         7.873894   2.472763   -1.075984 C.2        1 UNL1     -0.0649
     4 C         8.743875   3.709899   -1.836894 C.2        1 UNL1     -0.0542
     5 C         9.757093   4.004908   -2.782112 C.2        1 UNL1     0.0115
     6 C         10.880788   3.382017   -3.655405 C.3        1 UNL1     -0.0348
     7 C         9.845475   5.488567   -3.388687 C.2        1 UNL1     0.2441
     8 O         10.670201   6.311717   -3.016162 O.2        1 UNL1     -0.2702
     9 N         9.087125   5.694457   -4.554305 N.am        1 UNL1     -0.2772
     10 C         7.805745   6.078474   -4.231941 C.2        1 UNL1     0.1049
     11 C         6.963839   5.105276   -3.934784 C.2        1 UNL1     0.0801
     12 C         6.513512   7.682037   -2.812063 C.ar        1 UNL1     0.0753
     13 C         5.759671   6.552455   -2.359985 C.ar        1 UNL1     0.0305
     14 C         5.874929   5.247219   -3.006611 C.2        1 UNL1     0.0924
     15 N         7.088046   3.776601   -4.095169 N.pl3        1 UNL1     -0.3170
     16 C         5.821483   3.174795   -3.772831 C.3        1 UNL1     0.1275
     17 N         5.189674   4.128413   -2.788375 N.2        1 UNL1     -0.2557
     18 C         4.960188   3.232617   -5.030818 C.3        1 UNL1     0.0016
     19 C         5.708953   2.550429   -6.164643 C.3        1 UNL1     0.0026
     20 N         5.984377   1.17273   -5.781084 N.3        1 UNL1     -0.3018
     21 C         6.756223   1.013415   -4.546888 C.3        1 UNL1     0.0026
     22 C         5.983531   1.701987   -3.420517 C.3        1 UNL1     0.0016
     23 C         6.423169   0.354473   -6.89399 C.3        1 UNL1     0.0012
     24 C         5.261758   0.103047   -7.868498 C.3        1 UNL1     -0.0339
     25 C         5.3275   1.050037   -9.078021 C.3        1 UNL1     -0.0615
     26 C         5.249122   -1.353437   -8.298932 C.3        1 UNL1     -0.0615
     27 C         6.309904   8.94913   -2.270642 C.ar        1 UNL1     0.1347
     28 C         5.356677   9.21643   -1.304226 C.ar        1 UNL1     0.0342
     29 C         4.660428   8.080424   -0.839584 C.ar        1 UNL1     0.1435
     30 C         4.879073   6.799014   -1.346934 C.ar        1 UNL1     0.0774
     31 O         3.624877   8.191618   0.020809 O.3        1 UNL1     -0.4436
     32 C         2.904726   6.957416   -0.117029 C.3        1 UNL1     0.3143
     33 C         3.916455   5.966515   -0.656227 C.2        1 UNL1     0.2504
     34 C         4.910048   10.581487   -0.860108 C.3        1 UNL1     -0.0327
     35 O         2.553668   6.519537   1.201407 O.2        1 UNL1     -0.4528
     36 C         -0.688085   4.581043   0.825423 C.3        1 UNL1     0.0854
     37 C         -0.996814   3.320168   -0.070346 C.3        1 UNL1     0.0236
     38 C         -1.589638   2.057657   0.72109 C.3        1 UNL1     0.1131
     39 C         -0.854235   1.527715   2.017474 C.3        1 UNL1     0.0200
     40 C         0.807479   1.385459   2.047601 C.3        1 UNL1     0.0661
     41 C         1.760621   0.618945   0.872193 C.3        1 UNL1     0.0091
     42 C         3.463716   0.985093   0.297036 C.3        1 UNL1     0.0661
     43 C         7.456529   7.476613   -3.939352 C.2        1 UNL1     0.2131
     44 O         7.849865   8.375733   -4.66019 O.2        1 UNL1     -0.2851
     45 O         7.117062   9.986009   -2.734123 O.3        1 UNL1     -0.5056
     46 O         3.935699   4.76297   -0.525989 O.2        1 UNL1     -0.2836
     47 C         5.573538   1.329711   1.893189 C.3        1 UNL1     -0.0566
     48 O         3.915613   -0.425146   0.375349 O.3        1 UNL1     -0.3909
     49 C         0.918711   0.385122   -0.362314 C.3        1 UNL1     -0.0577
     50 O         1.407844   2.604378   2.43686 O.3        1 UNL1     -0.3910
     51 O         -0.802586   4.390647   2.217569 O.3        1 UNL1     -0.3753
     52 C         0.040308   3.162167   -1.229813 C.3        1 UNL1     -0.0564
     53 O         -2.19612   1.017785   -0.175109 O.3        1 UNL1     -0.4608
     54 C         -2.425682   -0.289546   0.16565 C.2        1 UNL1     0.3042
     55 O         -1.856485   -1.28729   -0.275212 O.2        1 UNL1     -0.2512
     56 C         -3.459769   -0.457738   1.24226 C.3        1 UNL1     0.0332
     57 C         -1.568226   2.194845   3.2837 C.3        1 UNL1     -0.0567
     58 C         1.821894   7.200738   -1.193968 C.3        1 UNL1     0.0210
     59 C         -1.113217   5.568776   2.960122 C.3        1 UNL1     0.0372
     60 C         0.638104   5.212844   0.586237 C.2        1 UNL1     -0.0208
     61 C         1.55591   5.649596   1.449733 C.2        1 UNL1     0.0882
     62 H         4.689533   2.742089   0.548555 H        1 UNL1     0.0365
     63 H         6.328615   3.621395   -0.294332 H        1 UNL1     0.0576
     64 H         8.331992   1.506899   -1.300395 H        1 UNL1     0.0615
     65 H         8.257284   4.62421   -1.486539 H        1 UNL1     0.0622
     66 H         -1.436253   5.326196   0.520399 H        1 UNL1     0.0645
     67 H         -1.867003   3.628019   -0.675786 H        1 UNL1     0.0362
     68 H         -2.535223   2.492534   1.079243 H        1 UNL1     0.0741
     69 H         -1.18245   0.515895   2.214714 H        1 UNL1     0.0359
     70 H         0.926398   0.725057   2.927821 H        1 UNL1     0.0600
     71 H         1.809055   -0.402275   1.298481 H        1 UNL1     0.0348
     72 H         3.363358   1.472759   1.277559 H        1 UNL1     0.0602
     73 H         0.74874   5.410674   -0.451005 H        1 UNL1     0.0628
     74 H         1.545869   5.43854   2.51959 H        1 UNL1     0.1022
     75 H         10.909724   2.273357   -3.524754 H        1 UNL1     0.0279
     76 H         10.773246   3.488234   -4.732541 H        1 UNL1     0.0279
     77 H         11.888347   3.666412   -3.318292 H        1 UNL1     0.0279
     78 H         9.023374   4.824562   -5.078991 H        1 UNL1     0.1553
     79 H         7.750058   3.350137   -4.717102 H        1 UNL1     0.1484
     80 H         4.001189   2.739712   -4.830488 H        1 UNL1     0.0317
     81 H         4.729735   4.269009   -5.299955 H        1 UNL1     0.0317
     82 H         6.636898   3.083659   -6.418606 H        1 UNL1     0.0428
     83 H         5.077798   2.604627   -7.052199 H        1 UNL1     0.0428
     84 H         6.880656   -0.029398   -4.238882 H        1 UNL1     0.0428
     85 H         7.784873   1.383526   -4.657402 H        1 UNL1     0.0428
     86 H         6.506455   1.452348   -2.515963 H        1 UNL1     0.0317
     87 H         5.005885   1.222366   -3.289106 H        1 UNL1     0.0317
     88 H         7.214645   0.898022   -7.426356 H        1 UNL1     0.0429
     89 H         6.859954   -0.590556   -6.546262 H        1 UNL1     0.0429
     90 H         4.312178   0.269242   -7.34611 H        1 UNL1     0.0308
     91 H         6.279222   0.951847   -9.608762 H        1 UNL1     0.0233
     92 H         4.50769   0.848442   -9.771475 H        1 UNL1     0.0233
     93 H         5.231573   2.103695   -8.789164 H        1 UNL1     0.0233
     94 H         4.551784   -1.495147   -9.131682 H        1 UNL1     0.0233
     95 H         6.245   -1.651271   -8.638762 H        1 UNL1     0.0233
     96 H         4.945321   -2.009427   -7.478353 H        1 UNL1     0.0233
     97 H         4.11539   10.530015   -0.121799 H        1 UNL1     0.0280
     98 H         5.722395   11.149499   -0.388186 H        1 UNL1     0.0280
     99 H         4.538286   11.148959   -1.728938 H        1 UNL1     0.0280
     100 H         6.646436   10.73632   -3.05219 H        1 UNL1     0.2922
     101 H         4.711816   0.905602   2.408188 H        1 UNL1     0.0236
     102 H         6.037622   2.132404   2.465285 H        1 UNL1     0.0236
     103 H         6.322194   0.519978   1.886839 H        1 UNL1     0.0236
     104 H         4.335814   -0.552173   1.248428 H        1 UNL1     0.2098
     105 H         0.700485   1.283716   -0.933907 H        1 UNL1     0.0234
     106 H         1.285306   -0.401951   -1.02114 H        1 UNL1     0.0234
     107 H         0.0   -0.0   0.0 H        1 UNL1     0.0234
     108 H         1.218374   3.257828   1.736237 H        1 UNL1     0.2098
     109 H         1.069285   3.062999   -0.856874 H        1 UNL1     0.0234
     110 H         -0.188264   2.327225   -1.90091 H        1 UNL1     0.0234
     111 H         0.046595   4.039989   -1.889613 H        1 UNL1     0.0234
     112 H         -3.579419   -1.518922   1.480838 H        1 UNL1     0.0342
     113 H         -3.21961   0.118637   2.134425 H        1 UNL1     0.0342
     114 H         -4.420066   -0.088985   0.856236 H        1 UNL1     0.0342
     115 H         -2.639675   1.954599   3.321988 H        1 UNL1     0.0234
     116 H         -1.132517   1.906123   4.242265 H        1 UNL1     0.0234
     117 H         -1.598396   3.297231   3.241555 H        1 UNL1     0.0234
     118 H         0.921989   7.684307   -0.775234 H        1 UNL1     0.0309
     119 H         2.184052   7.791026   -2.041674 H        1 UNL1     0.0309
     120 H         1.433465   6.268184   -1.617729 H        1 UNL1     0.0309
     121 H         -0.277271   6.258782   2.848575 H        1 UNL1     0.0524
     122 H         -2.015659   6.076539   2.580897 H        1 UNL1     0.0524
     123 H         -1.260309   5.324504   4.008353 H        1 UNL1     0.0524
@<TRIPOS>BOND
     1     1     2    1
     2     1    42    1
     3     2     3    2
     4     3     4    1
     5     4     5    2
     6     5     7    1
     7     6    75    1
     8     6    76    1
     9     6    77    1
    10     7     9   am
    11     9    10    1
    12    10    11    2
    13    10    43    1
    14    11    14    1
    15    11    15    1
    16    12    13   ar
    17    12    27   ar
    18    12    43    1
    19    13    14    1
    20    13    30   ar
    21    14    17    2
    22    15    16    1
    23    16    17    1
    24    16    18    1
    25    16    22    1
    26    18    19    1
    27    19    20    1
    28    20    21    1
    29    21    22    1
    30    23    24    1
    31    23    88    1
    32    23    89    1
    33    24    25    1
    34    24    26    1
    35    24    90    1
    36    25    91    1
    37    25    92    1
    38    25    93    1
    39    26    94    1
    40    26    95    1
    41    26    96    1
    42    27    28   ar
    43    28    29   ar
    44    29    30   ar
    45    29    31    1
    46    30    33    1
    47    31    32    1
    48    32    33    1
    49    32    35    1
    50    34    97    1
    51    34    98    1
    52    34    99    1
    53    35    61    1
    54    36    37    1
    55    36    60    1
    56    37    38    1
    57    38    39    1
    58    39    40    1
    59    40    41    1
    60    41    42    1
    61    45   100    1
    62    47   101    1
    63    47   102    1
    64    47   103    1
    65    48   104    1
    66    49   105    1
    67    49   106    1
    68    49   107    1
    69    50   108    1
    70    51    59    1
    71    52   109    1
    72    52   110    1
    73    52   111    1
    74    53    54    1
    75    54    55    2
    76    54    56    1
    77    56   112    1
    78    56   113    1
    79    56   114    1
    80    57   115    1
    81    57   116    1
    82    57   117    1
    83    58   118    1
    84    58   119    1
    85    58   120    1
    86    59   121    1
    87    59   122    1
    88    59   123    1
    89    60    61    2
    90     1    47    1
    91     1    62    1
    92     2    63    1
    93     3    64    1
    94     4    65    1
    95     5     6    1
    96     7     8    2
    97     9    78    1
    98    15    79    1
    99    18    80    1
   100    18    81    1
   101    19    82    1
   102    19    83    1
   103    20    23    1
   104    21    84    1
   105    21    85    1
   106    22    86    1
   107    22    87    1
   108    27    45    1
   109    28    34    1
   110    32    58    1
   111    33    46    2
   112    36    51    1
   113    36    66    1
   114    37    52    1
   115    37    67    1
   116    38    53    1
   117    38    68    1
   118    42    48    1
   119    42    72    1
   120    43    44    2
   121    60    73    1
   122    61    74    1
   123    39    69    1
   124    39    57    1
   125    40    70    1
   126    40    50    1
   127    41    71    1
   128    41    49    1
