@<TRIPOS>MOLECULE
*****
 123 128 0 0 0
SMALL
GASTEIGER

@<TRIPOS>ATOM
     1 C         -0.016264   -3.498424   3.503501 C.3        1 UNL1     0.0009
     2 C         0.38859   -5.306591   3.564001 C.2        1 UNL1     -0.0787
     3 C         -0.023269   -6.679928   3.764909 C.2        1 UNL1     -0.0649
     4 C         0.895687   -8.084708   3.544753 C.2        1 UNL1     -0.0542
     5 C         0.844148   -9.485486   3.339219 C.2        1 UNL1     0.0115
     6 C         -0.097391   -10.721127   3.335045 C.3        1 UNL1     -0.0348
     7 C         2.14454   -10.2356   2.770626 C.2        1 UNL1     0.2441
     8 O         2.900645   -10.885904   3.479101 O.2        1 UNL1     -0.2702
     9 N         2.213534   -10.313805   1.368743 N.am        1 UNL1     -0.2772
     10 C         2.833538   -9.1978   0.855471 C.2        1 UNL1     0.1049
     11 C         2.071431   -8.131481   0.693055 C.2        1 UNL1     0.0801
     12 C         4.860547   -7.756222   1.120845 C.ar        1 UNL1     0.0753
     13 C         3.966122   -6.639151   1.148504 C.ar        1 UNL1     0.0305
     14 C         2.553438   -6.781337   0.803309 C.2        1 UNL1     0.0924
     15 N         0.734157   -8.008785   0.74937 N.pl3        1 UNL1     -0.3170
     16 C         0.397271   -6.674411   0.329601 C.3        1 UNL1     0.1275
     17 N         1.611904   -5.850069   0.680102 N.2        1 UNL1     -0.2557
     18 C         0.318617   -6.686005   -1.194007 C.3        1 UNL1     0.0016
     19 C         -0.680293   -7.749564   -1.621337 C.3        1 UNL1     0.0026
     20 N         -1.975371   -7.438616   -1.032176 N.3        1 UNL1     -0.3018
     21 C         -1.987158   -7.344529   0.429117 C.3        1 UNL1     0.0026
     22 C         -0.980188   -6.267334   0.836005 C.3        1 UNL1     0.0016
     23 C         -3.057716   -8.210008   -1.610213 C.3        1 UNL1     0.0012
     24 C         -2.917852   -8.272394   -3.139364 C.3        1 UNL1     -0.0339
     25 C         -1.549451   -8.835982   -3.556385 C.3        1 UNL1     -0.0615
     26 C         -4.059292   -9.078615   -3.734259 C.3        1 UNL1     -0.0615
     27 C         6.227348   -7.59186   1.332879 C.ar        1 UNL1     0.1347
     28 C         6.81929   -6.358986   1.541869 C.ar        1 UNL1     0.0342
     29 C         5.913022   -5.279774   1.613603 C.ar        1 UNL1     0.1435
     30 C         4.537182   -5.434186   1.439133 C.ar        1 UNL1     0.0774
     31 O         6.34381   -4.002457   1.702421 O.3        1 UNL1     -0.4436
     32 C         5.222697   -3.211436   1.280208 C.3        1 UNL1     0.3143
     33 C         4.008942   -4.088027   1.513877 C.2        1 UNL1     0.2504
     34 C         8.295636   -6.075708   1.525907 C.3        1 UNL1     -0.0327
     35 O         5.117997   -2.104384   2.183937 O.2        1 UNL1     -0.4528
     36 C         3.624632   0.745468   0.169913 C.3        1 UNL1     0.0854
     37 C         2.264275   0.796788   -0.626527 C.3        1 UNL1     0.0236
     38 C         1.287575   2.001672   -0.219027 C.3        1 UNL1     0.1131
     39 C         0.934724   2.245696   1.303543 C.3        1 UNL1     0.0200
     40 C         0.566835   0.961064   2.30195 C.3        1 UNL1     0.0661
     41 C         -0.551304   -0.269713   1.966448 C.3        1 UNL1     0.0091
     42 C         -0.556398   -2.038194   2.454147 C.3        1 UNL1     0.0661
     43 C         4.297103   -9.083553   0.770155 C.2        1 UNL1     0.2131
     44 O         4.96465   -10.004652   0.335764 O.2        1 UNL1     -0.2851
     45 O         7.022077   -8.736342   1.334818 O.3        1 UNL1     -0.5056
     46 O         2.867181   -3.750934   1.73434 O.2        1 UNL1     -0.2836
     47 C         -0.196381   -2.937785   4.939894 C.3        1 UNL1     -0.0566
     48 O         -1.970472   -2.028713   2.900711 O.3        1 UNL1     -0.3909
     49 C         -0.910376   -0.215874   0.49823 C.3        1 UNL1     -0.0577
     50 O         1.741565   0.40765   2.860042 O.3        1 UNL1     -0.3910
     51 O         3.741051   1.645164   1.248998 O.3        1 UNL1     -0.3753
     52 C         1.726804   -0.63483   -0.952935 C.3        1 UNL1     -0.0564
     53 O         0.183509   2.240231   -1.207184 O.3        1 UNL1     -0.4608
     54 C         -0.859838   3.112521   -1.038463 C.2        1 UNL1     0.3042
     55 O         -1.44018   3.388777   0.010691 O.2        1 UNL1     -0.2512
     56 C         -1.260345   3.822355   -2.300384 C.3        1 UNL1     0.0332
     57 C         1.941167   3.357439   1.859666 C.3        1 UNL1     -0.0567
     58 C         5.392204   -2.989202   -0.240781 C.3        1 UNL1     0.0210
     59 C         5.0797   1.915328   1.662393 C.3        1 UNL1     0.0372
     60 C         3.999085   -0.598205   0.689037 C.2        1 UNL1     -0.0208
     61 C         4.468073   -0.963807   1.882825 C.2        1 UNL1     0.0882
     62 H         1.022383   -3.295065   3.216153 H        1 UNL1     0.0365
     63 H         1.468667   -5.278803   3.405472 H        1 UNL1     0.0576
     64 H         -1.069719   -6.945206   3.931279 H        1 UNL1     0.0615
     65 H         1.921999   -7.715456   3.468469 H        1 UNL1     0.0622
     66 H         4.390353   1.004957   -0.574656 H        1 UNL1     0.0645
     67 H         2.562415   1.091704   -1.647653 H        1 UNL1     0.0362
     68 H         1.916407   2.855771   -0.513317 H        1 UNL1     0.0741
     69 H         0.041749   2.853753   1.360727 H        1 UNL1     0.0359
     70 H         0.090228   1.502437   3.141487 H        1 UNL1     0.0600
     71 H         -1.460122   0.163666   2.428172 H        1 UNL1     0.0348
     72 H         0.130588   -1.533927   3.149186 H        1 UNL1     0.0602
     73 H         3.962953   -1.30195   -0.10512 H        1 UNL1     0.0628
     74 H         4.483758   -0.31987   2.76279 H        1 UNL1     0.1022
     75 H         -1.027393   -10.503382   2.756499 H        1 UNL1     0.0279
     76 H         0.279097   -11.616275   2.84511 H        1 UNL1     0.0279
     77 H         -0.508667   -10.945759   4.330079 H        1 UNL1     0.0279
     78 H         1.272857   -10.347081   0.981318 H        1 UNL1     0.1553
     79 H         0.099878   -8.78176   0.664909 H        1 UNL1     0.1484
     80 H         0.018535   -5.690941   -1.544099 H        1 UNL1     0.0317
     81 H         1.300129   -6.890603   -1.634943 H        1 UNL1     0.0317
     82 H         -0.347702   -8.758517   -1.336186 H        1 UNL1     0.0428
     83 H         -0.719467   -7.742021   -2.711043 H        1 UNL1     0.0428
     84 H         -2.951871   -7.031984   0.840767 H        1 UNL1     0.0428
     85 H         -1.79755   -8.317596   0.902937 H        1 UNL1     0.0428
     86 H         -1.111436   -6.132993   1.893698 H        1 UNL1     0.0317
     87 H         -1.278838   -5.298185   0.418088 H        1 UNL1     0.0317
     88 H         -2.999739   -9.231457   -1.211999 H        1 UNL1     0.0429
     89 H         -4.035602   -7.805993   -1.318176 H        1 UNL1     0.0429
     90 H         -3.019108   -7.261143   -3.550864 H        1 UNL1     0.0308
     91 H         -1.634643   -9.869273   -3.905892 H        1 UNL1     0.0233
     92 H         -1.104744   -8.225805   -4.346023 H        1 UNL1     0.0233
     93 H         -0.829109   -8.838254   -2.72938 H        1 UNL1     0.0233
     94 H         -3.667143   -9.948848   -4.271613 H        1 UNL1     0.0233
     95 H         -4.715138   -9.441537   -2.937945 H        1 UNL1     0.0233
     96 H         -4.65009   -8.478863   -4.432274 H        1 UNL1     0.0233
     97 H         8.775911   -6.363949   2.456221 H        1 UNL1     0.0280
     98 H         8.815178   -6.631757   0.734615 H        1 UNL1     0.0280
     99 H         8.462832   -4.997309   1.370354 H        1 UNL1     0.0280
     100 H         7.825853   -8.654043   1.817306 H        1 UNL1     0.2922
     101 H         -0.475886   -1.885553   4.891509 H        1 UNL1     0.0236
     102 H         0.672929   -3.101208   5.575956 H        1 UNL1     0.0236
     103 H         -1.030101   -3.424584   5.472934 H        1 UNL1     0.0236
     104 H         -2.151904   -1.149606   3.287006 H        1 UNL1     0.2098
     105 H         -1.296723   -1.14896   0.095865 H        1 UNL1     0.0234
     106 H         -1.559482   0.613726   0.218312 H        1 UNL1     0.0234
     107 H         0.0   0.0   0.0 H        1 UNL1     0.0234
     108 H         1.522638   -0.495663   3.159815 H        1 UNL1     0.2098
     109 H         2.462512   -1.417946   -0.722339 H        1 UNL1     0.0234
     110 H         0.779506   -0.863308   -0.452767 H        1 UNL1     0.0234
     111 H         1.497797   -0.747373   -2.021034 H        1 UNL1     0.0234
     112 H         -1.335484   4.898059   -2.114479 H        1 UNL1     0.0342
     113 H         -0.576303   3.614665   -3.121842 H        1 UNL1     0.0342
     114 H         -2.255034   3.461414   -2.596155 H        1 UNL1     0.0342
     115 H         1.749608   3.589854   2.9163 H        1 UNL1     0.0234
     116 H         2.995156   3.087474   1.76869 H        1 UNL1     0.0234
     117 H         1.802159   4.348684   1.394851 H        1 UNL1     0.0234
     118 H         6.352064   -2.500812   -0.483989 H        1 UNL1     0.0309
     119 H         5.30246   -3.912134   -0.822455 H        1 UNL1     0.0309
     120 H         4.646675   -2.298907   -0.650398 H        1 UNL1     0.0309
     121 H         5.069901   2.050746   2.74356 H        1 UNL1     0.0524
     122 H         5.76339   1.079524   1.4387 H        1 UNL1     0.0524
     123 H         5.449446   2.81328   1.175499 H        1 UNL1     0.0524
@<TRIPOS>BOND
     1     1     2    1
     2     1    42    1
     3     2     3    2
     4     3     4    1
     5     4     5    2
     6     5     7    1
     7     6    75    1
     8     6    76    1
     9     6    77    1
    10     7     9   am
    11     9    10    1
    12    10    11    2
    13    10    43    1
    14    11    14    1
    15    11    15    1
    16    12    13   ar
    17    12    27   ar
    18    12    43    1
    19    13    14    1
    20    13    30   ar
    21    14    17    2
    22    15    16    1
    23    16    17    1
    24    16    18    1
    25    16    22    1
    26    18    19    1
    27    19    20    1
    28    20    21    1
    29    21    22    1
    30    23    24    1
    31    23    88    1
    32    23    89    1
    33    24    25    1
    34    24    26    1
    35    24    90    1
    36    25    91    1
    37    25    92    1
    38    25    93    1
    39    26    94    1
    40    26    95    1
    41    26    96    1
    42    27    28   ar
    43    28    29   ar
    44    29    30   ar
    45    29    31    1
    46    30    33    1
    47    31    32    1
    48    32    33    1
    49    32    35    1
    50    34    97    1
    51    34    98    1
    52    34    99    1
    53    35    61    1
    54    36    37    1
    55    36    60    1
    56    37    38    1
    57    38    39    1
    58    39    40    1
    59    40    41    1
    60    41    42    1
    61    45   100    1
    62    47   101    1
    63    47   102    1
    64    47   103    1
    65    48   104    1
    66    49   105    1
    67    49   106    1
    68    49   107    1
    69    50   108    1
    70    51    59    1
    71    52   109    1
    72    52   110    1
    73    52   111    1
    74    53    54    1
    75    54    55    2
    76    54    56    1
    77    56   112    1
    78    56   113    1
    79    56   114    1
    80    57   115    1
    81    57   116    1
    82    57   117    1
    83    58   118    1
    84    58   119    1
    85    58   120    1
    86    59   121    1
    87    59   122    1
    88    59   123    1
    89    60    61    2
    90     1    47    1
    91     1    62    1
    92     2    63    1
    93     3    64    1
    94     4    65    1
    95     5     6    1
    96     7     8    2
    97     9    78    1
    98    15    79    1
    99    18    80    1
   100    18    81    1
   101    19    82    1
   102    19    83    1
   103    20    23    1
   104    21    84    1
   105    21    85    1
   106    22    86    1
   107    22    87    1
   108    27    45    1
   109    28    34    1
   110    32    58    1
   111    33    46    2
   112    36    51    1
   113    36    66    1
   114    37    52    1
   115    37    67    1
   116    38    53    1
   117    38    68    1
   118    42    48    1
   119    42    72    1
   120    43    44    2
   121    60    73    1
   122    61    74    1
   123    39    69    1
   124    39    57    1
   125    40    70    1
   126    40    50    1
   127    41    71    1
   128    41    49    1
