@<TRIPOS>MOLECULE
*****
 123 128 0 0 0
SMALL
GASTEIGER

@<TRIPOS>ATOM
     1 C         5.168807   1.745593   0.485393 C.3        1 UNL1     0.0009
     2 C         6.60504   2.550765   -0.366646 C.2        1 UNL1     -0.0787
     3 C         7.886107   2.451747   -1.033811 C.2        1 UNL1     -0.0649
     4 C         8.763474   3.686287   -1.790445 C.2        1 UNL1     -0.0542
     5 C         9.782625   3.978251   -2.730214 C.2        1 UNL1     0.0115
     6 C         10.909458   3.352062   -3.59708 C.3        1 UNL1     -0.0348
     7 C         9.878206   5.461418   -3.3369 C.2        1 UNL1     0.2441
     8 O         10.703026   6.28257   -2.960194 O.2        1 UNL1     -0.2702
     9 N         9.126796   5.668797   -4.506741 N.am        1 UNL1     -0.2772
     10 C         7.844677   6.056293   -4.191562 C.2        1 UNL1     0.1049
     11 C         6.998614   5.085421   -3.898628 C.2        1 UNL1     0.0801
     12 C         6.548875   7.663822   -2.779442 C.ar        1 UNL1     0.0753
     13 C         5.789618   6.536402   -2.331043 C.ar        1 UNL1     0.0305
     14 C         5.905009   5.230597   -2.976496 C.2        1 UNL1     0.0924
     15 N         7.120226   3.756359   -4.057789 N.pl3        1 UNL1     -0.3170
     16 C         5.850348   3.157997   -3.742155 C.3        1 UNL1     0.1275
     17 N         5.215647   4.113676   -2.761565 N.2        1 UNL1     -0.2557
     18 C         4.996115   3.217538   -5.004867 C.3        1 UNL1     0.0016
     19 C         5.749298   2.532919   -6.134293 C.3        1 UNL1     0.0026
     20 N         6.019015   1.154668   -5.748669 N.3        1 UNL1     -0.3018
     21 C         6.783666   0.993859   -4.510196 C.3        1 UNL1     0.0026
     22 C         6.006614   1.68492   -3.388358 C.3        1 UNL1     0.0016
     23 C         6.461761   0.334799   -6.85882 C.3        1 UNL1     0.0012
     24 C         5.305055   0.085996   -7.839578 C.3        1 UNL1     -0.0339
     25 C         5.379899   1.032301   -9.049107 C.3        1 UNL1     -0.0615
     26 C         5.290973   -1.370632   -8.269481 C.3        1 UNL1     -0.0615
     27 C         6.345614   8.93167   -2.239661 C.ar        1 UNL1     0.1347
     28 C         5.387806   9.201865   -1.278594 C.ar        1 UNL1     0.0342
     29 C         4.686056   8.067876   -0.817313 C.ar        1 UNL1     0.1435
     30 C         4.904129   6.785687   -1.322936 C.ar        1 UNL1     0.0774
     31 O         3.646098   8.182136   0.037344 O.3        1 UNL1     -0.4436
     32 C         2.923492   6.949759   -0.103937 C.3        1 UNL1     0.3143
     33 C         3.935568   5.955994   -0.637177 C.2        1 UNL1     0.2504
     34 C         4.942317   10.568271   -0.837487 C.3        1 UNL1     -0.0327
     35 O         2.56407   6.513355   1.212733 O.2        1 UNL1     -0.4528
     36 C         -0.680628   4.583171   0.819774 C.3        1 UNL1     0.0854
     37 C         -0.987735   3.322729   -0.077161 C.3        1 UNL1     0.0236
     38 C         -1.588185   2.062103   0.711527 C.3        1 UNL1     0.1131
     39 C         -0.861285   1.530789   2.012139 C.3        1 UNL1     0.0200
     40 C         0.799862   1.38421   2.051433 C.3        1 UNL1     0.0661
     41 C         1.757425   0.614714   0.881579 C.3        1 UNL1     0.0091
     42 C         3.464598   0.976172   0.315618 C.3        1 UNL1     0.0661
     43 C         7.497516   7.455462   -3.901461 C.2        1 UNL1     0.2131
     44 O         7.897145   8.353248   -4.620498 O.2        1 UNL1     -0.2851
     45 O         7.158006   9.966243   -2.699133 O.3        1 UNL1     -0.5056
     46 O         3.950953   4.752458   -0.506345 O.2        1 UNL1     -0.2836
     47 C         5.566533   1.315955   1.923172 C.3        1 UNL1     -0.0566
     48 O         3.912372   -0.435208   0.396981 O.3        1 UNL1     -0.3909
     49 C         0.921686   0.382569   -0.35743 C.3        1 UNL1     -0.0577
     50 O         1.401267   2.601721   2.443481 O.3        1 UNL1     -0.3910
     51 O         -0.803254   4.393661   2.211348 O.3        1 UNL1     -0.3753
     52 C         0.055309   3.161532   -1.230861 C.3        1 UNL1     -0.0564
     53 O         -2.19246   1.023441   -0.18756 O.3        1 UNL1     -0.4608
     54 C         -2.427302   -0.283143   0.152469 C.2        1 UNL1     0.3042
     55 O         -1.859327   -1.282657   -0.285955 O.2        1 UNL1     -0.2512
     56 C         -3.466205   -0.448068   1.224939 C.3        1 UNL1     0.0332
     57 C         -1.580459   2.200315   3.274161 C.3        1 UNL1     -0.0567
     58 C         1.847218   7.195453   -1.186895 C.3        1 UNL1     0.0210
     59 C         -1.11487   5.57291   2.951708 C.3        1 UNL1     0.0372
     60 C         0.648499   5.211407   0.587604 C.2        1 UNL1     -0.0208
     61 C         1.562696   5.646125   1.455941 C.2        1 UNL1     0.0882
     62 H         4.693604   2.730069   0.573137 H        1 UNL1     0.0365
     63 H         6.339573   3.604738   -0.26111 H        1 UNL1     0.0576
     64 H         8.342902   1.484595   -1.255315 H        1 UNL1     0.0615
     65 H         8.277361   4.602012   -1.443134 H        1 UNL1     0.0622
     66 H         -1.425163   5.330145   0.510349 H        1 UNL1     0.0645
     67 H         -1.853786   3.632596   -0.687487 H        1 UNL1     0.0362
     68 H         -2.534579   2.499598   1.064315 H        1 UNL1     0.0741
     69 H         -1.193219   0.519913   2.207989 H        1 UNL1     0.0359
     70 H         0.912229   0.72387   2.93256 H        1 UNL1     0.0600
     71 H         1.800854   -0.406449   1.308542 H        1 UNL1     0.0348
     72 H         3.360142   1.464512   1.295378 H        1 UNL1     0.0602
     73 H         0.765334   5.40851   -0.449097 H        1 UNL1     0.0628
     74 H         1.54624   5.435547   2.525812 H        1 UNL1     0.1022
     75 H         10.934781   2.243385   -3.465821 H        1 UNL1     0.0279
     76 H         10.808099   3.458104   -4.674833 H        1 UNL1     0.0279
     77 H         11.915894   3.633967   -3.254565 H        1 UNL1     0.0279
     78 H         9.063649   4.79885   -5.031414 H        1 UNL1     0.1553
     79 H         7.784521   3.327906   -4.67591 H        1 UNL1     0.1484
     80 H         4.034748   2.727222   -4.809597 H        1 UNL1     0.0317
     81 H         4.769849   4.254414   -5.275686 H        1 UNL1     0.0317
     82 H         6.680011   3.063618   -6.383382 H        1 UNL1     0.0428
     83 H         5.123161   2.588391   -7.025317 H        1 UNL1     0.0428
     84 H         6.903684   -0.049146   -4.201088 H        1 UNL1     0.0428
     85 H         7.81387   1.361236   -4.615219 H        1 UNL1     0.0428
     86 H         6.523919   1.434298   -2.480849 H        1 UNL1     0.0317
     87 H         5.027013   1.207908   -3.262112 H        1 UNL1     0.0317
     88 H         7.25756   0.876056   -7.38706 H        1 UNL1     0.0429
     89 H         6.894163   -0.61122   -6.508318 H        1 UNL1     0.0429
     90 H         4.353063   0.254888   -7.32247 H        1 UNL1     0.0308
     91 H         6.334256   0.931402   -9.574583 H        1 UNL1     0.0233
     92 H         4.563378   0.832554   -9.746963 H        1 UNL1     0.0233
     93 H         5.285144   2.086327   -8.761209 H        1 UNL1     0.0233
     94 H         4.597841   -1.510872   -9.105984 H        1 UNL1     0.0233
     95 H         6.287917   -1.671208   -8.603725 H        1 UNL1     0.0233
     96 H         4.980966   -2.025481   -7.450313 H        1 UNL1     0.0233
     97 H         4.143494   10.519184   -0.103524 H        1 UNL1     0.0280
     98 H         5.753548   11.134358   -0.36135 H        1 UNL1     0.0280
     99 H         4.576807   11.136344   -1.708572 H        1 UNL1     0.0280
     100 H         6.691092   10.717646   -3.02008 H        1 UNL1     0.2922
     101 H         4.700897   0.894314   2.433612 H        1 UNL1     0.0236
     102 H         6.02957   2.117674   2.497477 H        1 UNL1     0.0236
     103 H         6.313095   0.504268   1.921256 H        1 UNL1     0.0236
     104 H         4.327449   -0.562963   1.272402 H        1 UNL1     0.2098
     105 H         0.708945   1.281489   -0.930576 H        1 UNL1     0.0234
     106 H         1.289828   -0.405735   -1.013915 H        1 UNL1     0.0234
     107 H         0.0   -0.0   0.0 H        1 UNL1     0.0234
     108 H         1.217347   3.255368   1.741564 H        1 UNL1     0.2098
     109 H         1.081964   3.059835   -0.852246 H        1 UNL1     0.0234
     110 H         -0.171762   2.326908   -1.902861 H        1 UNL1     0.0234
     111 H         0.067505   4.039056   -1.890973 H        1 UNL1     0.0234
     112 H         -3.589989   -1.50885   1.463192 H        1 UNL1     0.0342
     113 H         -3.227908   0.12773   2.117977 H        1 UNL1     0.0342
     114 H         -4.423835   -0.076505   0.835005 H        1 UNL1     0.0342
     115 H         -2.650194   1.952711   3.313512 H        1 UNL1     0.0234
     116 H         -1.143075   1.920359   4.234561 H        1 UNL1     0.0234
     117 H         -1.618425   3.302191   3.225487 H        1 UNL1     0.0234
     118 H         0.946298   7.681547   -0.773296 H        1 UNL1     0.0309
     119 H         2.215558   7.784437   -2.032842 H        1 UNL1     0.0309
     120 H         1.458682   6.263739   -1.612398 H        1 UNL1     0.0309
     121 H         -0.276526   6.260685   2.844464 H        1 UNL1     0.0524
     122 H         -2.013891   6.082867   2.567335 H        1 UNL1     0.0524
     123 H         -1.268343   5.329464   3.999216 H        1 UNL1     0.0524
@<TRIPOS>BOND
     1     1     2    1
     2     1    42    1
     3     2     3    2
     4     3     4    1
     5     4     5    2
     6     5     7    1
     7     6    75    1
     8     6    76    1
     9     6    77    1
    10     7     9   am
    11     9    10    1
    12    10    11    2
    13    10    43    1
    14    11    14    1
    15    11    15    1
    16    12    13   ar
    17    12    27   ar
    18    12    43    1
    19    13    14    1
    20    13    30   ar
    21    14    17    2
    22    15    16    1
    23    16    17    1
    24    16    18    1
    25    16    22    1
    26    18    19    1
    27    19    20    1
    28    20    21    1
    29    21    22    1
    30    23    24    1
    31    23    88    1
    32    23    89    1
    33    24    25    1
    34    24    26    1
    35    24    90    1
    36    25    91    1
    37    25    92    1
    38    25    93    1
    39    26    94    1
    40    26    95    1
    41    26    96    1
    42    27    28   ar
    43    28    29   ar
    44    29    30   ar
    45    29    31    1
    46    30    33    1
    47    31    32    1
    48    32    33    1
    49    32    35    1
    50    34    97    1
    51    34    98    1
    52    34    99    1
    53    35    61    1
    54    36    37    1
    55    36    60    1
    56    37    38    1
    57    38    39    1
    58    39    40    1
    59    40    41    1
    60    41    42    1
    61    45   100    1
    62    47   101    1
    63    47   102    1
    64    47   103    1
    65    48   104    1
    66    49   105    1
    67    49   106    1
    68    49   107    1
    69    50   108    1
    70    51    59    1
    71    52   109    1
    72    52   110    1
    73    52   111    1
    74    53    54    1
    75    54    55    2
    76    54    56    1
    77    56   112    1
    78    56   113    1
    79    56   114    1
    80    57   115    1
    81    57   116    1
    82    57   117    1
    83    58   118    1
    84    58   119    1
    85    58   120    1
    86    59   121    1
    87    59   122    1
    88    59   123    1
    89    60    61    2
    90     1    47    1
    91     1    62    1
    92     2    63    1
    93     3    64    1
    94     4    65    1
    95     5     6    1
    96     7     8    2
    97     9    78    1
    98    15    79    1
    99    18    80    1
   100    18    81    1
   101    19    82    1
   102    19    83    1
   103    20    23    1
   104    21    84    1
   105    21    85    1
   106    22    86    1
   107    22    87    1
   108    27    45    1
   109    28    34    1
   110    32    58    1
   111    33    46    2
   112    36    51    1
   113    36    66    1
   114    37    52    1
   115    37    67    1
   116    38    53    1
   117    38    68    1
   118    42    48    1
   119    42    72    1
   120    43    44    2
   121    60    73    1
   122    61    74    1
   123    39    69    1
   124    39    57    1
   125    40    70    1
   126    40    50    1
   127    41    71    1
   128    41    49    1
