@<TRIPOS>MOLECULE
*****
 123 128 0 0 0
SMALL
GASTEIGER

@<TRIPOS>ATOM
     1 C         -0.840491   4.00767   0.519916 C.3        1 UNL1     0.0009
     2 C         -2.495542   4.800417   0.78335 C.2        1 UNL1     -0.0787
     3 C         -3.668626   5.464318   0.254999 C.2        1 UNL1     -0.0649
     4 C         -5.078181   5.902685   1.084063 C.2        1 UNL1     -0.0542
     5 C         -6.446294   6.244576   0.948208 C.2        1 UNL1     0.0115
     6 C         -7.554712   6.608561   -0.077583 C.3        1 UNL1     -0.0348
     7 C         -7.400887   6.155415   2.23576 C.2        1 UNL1     0.2441
     8 O         -7.749605   7.138461   2.874932 O.2        1 UNL1     -0.2702
     9 N         -8.019629   4.907406   2.424926 N.am        1 UNL1     -0.2772
     10 C         -7.211715   4.078771   3.169211 C.2        1 UNL1     0.1049
     11 C         -6.267616   3.436609   2.50549 C.2        1 UNL1     0.0801
     12 C         -5.848085   3.996697   5.264709 C.ar        1 UNL1     0.0753
     13 C         -4.779055   3.494652   4.456171 C.ar        1 UNL1     0.0305
     14 C         -4.997364   3.074778   3.073747 C.2        1 UNL1     0.0924
     15 N         -6.088552   3.291991   1.181274 N.pl3        1 UNL1     -0.3170
     16 C         -5.011597   2.358693   0.982835 C.3        1 UNL1     0.1275
     17 N         -4.156476   2.500231   2.218334 N.2        1 UNL1     -0.2557
     18 C         -5.611391   0.957073   1.041241 C.3        1 UNL1     0.0016
     19 C         -6.723779   0.860719   0.009301 C.3        1 UNL1     0.0026
     20 N         -6.165807   1.137425   -1.307183 N.3        1 UNL1     -0.3018
     21 C         -5.511256   2.440226   -1.443717 C.3        1 UNL1     0.0026
     22 C         -4.394517   2.513513   -0.400924 C.3        1 UNL1     0.0016
     23 C         -7.064906   0.78172   -2.386876 C.3        1 UNL1     0.0012
     24 C         -8.103765   -0.244016   -1.906881 C.3        1 UNL1     -0.0339
     25 C         -8.480792   -1.228479   -3.026139 C.3        1 UNL1     -0.0615
     26 C         -7.589663   -0.968463   -0.67495 C.3        1 UNL1     -0.0615
     27 C         -5.659553   4.280842   6.615204 C.ar        1 UNL1     0.1347
     28 C         -4.462585   4.066718   7.275104 C.ar        1 UNL1     0.0342
     29 C         -3.410911   3.618261   6.448041 C.ar        1 UNL1     0.1435
     30 C         -3.575393   3.363749   5.085914 C.ar        1 UNL1     0.0774
     31 O         -2.214358   3.258928   6.961993 O.3        1 UNL1     -0.4436
     32 C         -1.612813   2.443796   5.944851 C.3        1 UNL1     0.3143
     33 C         -2.28921   2.858086   4.653703 C.2        1 UNL1     0.2504
     34 C         -4.256707   4.108487   8.763717 C.3        1 UNL1     -0.0327
     35 O         -0.238878   2.837186   5.840937 O.2        1 UNL1     -0.4528
     36 C         1.652772   -0.267333   4.749282 C.3        1 UNL1     0.0854
     37 C         1.435689   -1.169259   3.473771 C.3        1 UNL1     0.0236
     38 C         2.735823   -1.365753   2.555738 C.3        1 UNL1     0.1131
     39 C         3.563523   -0.102222   2.085981 C.3        1 UNL1     0.0200
     40 C         2.780395   1.264011   1.535929 C.3        1 UNL1     0.0661
     41 C         1.553618   1.302561   0.364972 C.3        1 UNL1     0.0091
     42 C         0.114574   2.426127   0.185651 C.3        1 UNL1     0.0661
     43 C         -7.188013   4.120204   4.638931 C.2        1 UNL1     0.2131
     44 O         -8.227032   4.148906   5.273245 O.2        1 UNL1     -0.2851
     45 O         -6.739036   4.809391   7.320036 O.3        1 UNL1     -0.5056
     46 O         -1.855417   2.803775   3.524665 O.2        1 UNL1     -0.2836
     47 C         0.239606   5.090272   0.252813 C.3        1 UNL1     -0.0566
     48 O         0.343474   2.674157   -1.258371 O.3        1 UNL1     -0.3909
     49 C         1.044863   -0.104613   0.144693 C.3        1 UNL1     -0.0577
     50 O         2.448664   2.118798   2.611577 O.3        1 UNL1     -0.3910
     51 O         2.896544   0.390923   4.833895 O.3        1 UNL1     -0.3753
     52 C         0.008293   -0.980667   2.863916 C.3        1 UNL1     -0.0564
     53 O         2.608243   -2.486549   1.565856 O.3        1 UNL1     -0.4608
     54 C         3.624458   -3.31519   1.167623 C.2        1 UNL1     0.3042
     55 O         4.547942   -3.048665   0.399521 O.2        1 UNL1     -0.2512
     56 C         3.58553   -4.669417   1.816675 C.3        1 UNL1     0.0332
     57 C         4.770054   0.094644   3.117339 C.3        1 UNL1     -0.0567
     58 C         -2.004456   0.982788   6.266721 C.3        1 UNL1     0.0210
     59 C         3.853583   -0.242662   5.681546 C.3        1 UNL1     0.0372
     60 C         0.604599   0.764835   4.975389 C.2        1 UNL1     -0.0208
     61 C         0.716036   2.051931   5.306613 C.2        1 UNL1     0.0882
     62 H         -0.799142   3.782275   1.592389 H        1 UNL1     0.0365
     63 H         -2.567218   4.764984   1.872421 H        1 UNL1     0.0576
     64 H         -3.813723   5.601593   -0.818877 H        1 UNL1     0.0615
     65 H         -4.801681   5.805983   2.137476 H        1 UNL1     0.0622
     66 H         1.577265   -0.963993   5.596047 H        1 UNL1     0.0645
     67 H         1.300856   -2.185307   3.883681 H        1 UNL1     0.0362
     68 H         3.387297   -1.892335   3.269752 H        1 UNL1     0.0741
     69 H         4.175215   -0.382207   1.238721 H        1 UNL1     0.0359
     70 H         3.620752   1.773518   1.026751 H        1 UNL1     0.0600
     71 H         2.162079   1.458662   -0.547368 H        1 UNL1     0.0348
     72 H         0.826182   2.947232   0.842446 H        1 UNL1     0.0602
     73 H         -0.350717   0.301845   4.959263 H        1 UNL1     0.0628
     74 H         1.650274   2.614221   5.290289 H        1 UNL1     0.1022
     75 H         -8.23624   5.739579   -0.243183 H        1 UNL1     0.0279
     76 H         -8.245916   7.396125   0.214051 H        1 UNL1     0.0279
     77 H         -7.159559   6.770407   -1.091171 H        1 UNL1     0.0279
     78 H         -8.169643   4.459817   1.523129 H        1 UNL1     0.1553
     79 H         -6.81223   3.439568   0.501978 H        1 UNL1     0.1484
     80 H         -4.821068   0.221652   0.848075 H        1 UNL1     0.0317
     81 H         -6.003494   0.740589   2.040761 H        1 UNL1     0.0317
     82 H         -7.553186   1.545529   0.239586 H        1 UNL1     0.0428
     83 H         -7.13874   -0.145893   0.069204 H        1 UNL1     0.0428
     84 H         -5.031673   2.590412   -2.41596 H        1 UNL1     0.0428
     85 H         -6.229619   3.268362   -1.36981 H        1 UNL1     0.0428
     86 H         -3.855692   3.417434   -0.616751 H        1 UNL1     0.0317
     87 H         -3.654448   1.72597   -0.588462 H        1 UNL1     0.0317
     88 H         -7.592289   1.690359   -2.705524 H        1 UNL1     0.0429
     89 H         -6.512797   0.407832   -3.258747 H        1 UNL1     0.0429
     90 H         -9.009522   0.284778   -1.587204 H        1 UNL1     0.0308
     91 H         -7.59188   -1.602884   -3.542626 H        1 UNL1     0.0233
     92 H         -9.044319   -2.073518   -2.623702 H        1 UNL1     0.0233
     93 H         -9.121582   -0.76879   -3.788313 H        1 UNL1     0.0233
     94 H         -8.106266   -1.927193   -0.557499 H        1 UNL1     0.0233
     95 H         -6.52043   -1.172371   -0.780422 H        1 UNL1     0.0233
     96 H         -7.748534   -0.377039   0.231111 H        1 UNL1     0.0233
     97 H         -4.965061   4.769141   9.254637 H        1 UNL1     0.0280
     98 H         -4.393119   3.123125   9.228163 H        1 UNL1     0.0280
     99 H         -3.238379   4.46753   8.985508 H        1 UNL1     0.0280
     100 H         -7.17537   5.523774   6.890044 H        1 UNL1     0.2922
     101 H         1.209617   4.7355   0.60048 H        1 UNL1     0.0236
     102 H         -0.014939   6.062615   0.673216 H        1 UNL1     0.0236
     103 H         0.380102   5.278088   -0.824767 H        1 UNL1     0.0236
     104 H         0.342585   3.641754   -1.395217 H        1 UNL1     0.2098
     105 H         1.454554   -0.59803   -0.733091 H        1 UNL1     0.0234
     106 H         1.119766   -0.75727   1.014381 H        1 UNL1     0.0234
     107 H         -0.0   0.0   0.0 H        1 UNL1     0.0234
     108 H         1.476371   2.210111   2.620348 H        1 UNL1     0.2098
     109 H         -0.288792   -1.828243   2.230617 H        1 UNL1     0.0234
     110 H         -0.762788   -0.800823   3.620775 H        1 UNL1     0.0234
     111 H         -0.041675   -0.094545   2.217204 H        1 UNL1     0.0234
     112 H         2.551166   -5.019821   1.884891 H        1 UNL1     0.0342
     113 H         4.209285   -5.392495   1.29329 H        1 UNL1     0.0342
     114 H         3.975971   -4.571271   2.83897 H        1 UNL1     0.0342
     115 H         4.551352   -0.360094   4.093337 H        1 UNL1     0.0234
     116 H         5.721492   -0.313583   2.770689 H        1 UNL1     0.0234
     117 H         4.935635   1.147168   3.404947 H        1 UNL1     0.0234
     118 H         -2.987952   0.714215   5.842917 H        1 UNL1     0.0309
     119 H         -1.259143   0.254441   5.931726 H        1 UNL1     0.0309
     120 H         -2.136333   0.809739   7.340391 H        1 UNL1     0.0309
     121 H         4.797258   0.290536   5.5696 H        1 UNL1     0.0524
     122 H         3.568148   -0.192523   6.745524 H        1 UNL1     0.0524
     123 H         3.975607   -1.284185   5.397937 H        1 UNL1     0.0524
@<TRIPOS>BOND
     1     1     2    1
     2     1    42    1
     3     2     3    2
     4     3     4    1
     5     4     5    2
     6     5     7    1
     7     6    75    1
     8     6    76    1
     9     6    77    1
    10     7     9   am
    11     9    10    1
    12    10    11    2
    13    10    43    1
    14    11    14    1
    15    11    15    1
    16    12    13   ar
    17    12    27   ar
    18    12    43    1
    19    13    14    1
    20    13    30   ar
    21    14    17    2
    22    15    16    1
    23    16    17    1
    24    16    18    1
    25    16    22    1
    26    18    19    1
    27    19    20    1
    28    20    21    1
    29    21    22    1
    30    23    24    1
    31    23    88    1
    32    23    89    1
    33    24    25    1
    34    24    26    1
    35    24    90    1
    36    25    91    1
    37    25    92    1
    38    25    93    1
    39    26    94    1
    40    26    95    1
    41    26    96    1
    42    27    28   ar
    43    28    29   ar
    44    29    30   ar
    45    29    31    1
    46    30    33    1
    47    31    32    1
    48    32    33    1
    49    32    35    1
    50    34    97    1
    51    34    98    1
    52    34    99    1
    53    35    61    1
    54    36    37    1
    55    36    60    1
    56    37    38    1
    57    38    39    1
    58    39    40    1
    59    40    41    1
    60    41    42    1
    61    45   100    1
    62    47   101    1
    63    47   102    1
    64    47   103    1
    65    48   104    1
    66    49   105    1
    67    49   106    1
    68    49   107    1
    69    50   108    1
    70    51    59    1
    71    52   109    1
    72    52   110    1
    73    52   111    1
    74    53    54    1
    75    54    55    2
    76    54    56    1
    77    56   112    1
    78    56   113    1
    79    56   114    1
    80    57   115    1
    81    57   116    1
    82    57   117    1
    83    58   118    1
    84    58   119    1
    85    58   120    1
    86    59   121    1
    87    59   122    1
    88    59   123    1
    89    60    61    2
    90     1    47    1
    91     1    62    1
    92     2    63    1
    93     3    64    1
    94     4    65    1
    95     5     6    1
    96     7     8    2
    97     9    78    1
    98    15    79    1
    99    18    80    1
   100    18    81    1
   101    19    82    1
   102    19    83    1
   103    20    23    1
   104    21    84    1
   105    21    85    1
   106    22    86    1
   107    22    87    1
   108    27    45    1
   109    28    34    1
   110    32    58    1
   111    33    46    2
   112    36    51    1
   113    36    66    1
   114    37    52    1
   115    37    67    1
   116    38    53    1
   117    38    68    1
   118    42    48    1
   119    42    72    1
   120    43    44    2
   121    60    73    1
   122    61    74    1
   123    39    69    1
   124    39    57    1
   125    40    70    1
   126    40    50    1
   127    41    71    1
   128    41    49    1
