@<TRIPOS>MOLECULE
*****
 123 128 0 0 0
SMALL
GASTEIGER

@<TRIPOS>ATOM
     1 C         0.92418   -5.034754   -1.554806 C.3        1 UNL1     0.0009
     2 C         0.557593   -6.23273   -2.921372 C.2        1 UNL1     -0.0787
     3 C         -0.093672   -7.435311   -3.39645 C.2        1 UNL1     -0.0649
     4 C         -0.154716   -8.029117   -4.980756 C.2        1 UNL1     -0.0542
     5 C         -0.844342   -8.885841   -5.873794 C.2        1 UNL1     0.0115
     6 C         -1.927486   -9.99561   -5.966191 C.3        1 UNL1     -0.0348
     7 C         -0.638059   -8.689706   -7.453658 C.2        1 UNL1     0.2441
     8 O         0.081255   -9.415699   -8.126001 O.2        1 UNL1     -0.2702
     9 N         -1.537876   -7.794932   -8.058521 N.am        1 UNL1     -0.2772
     10 C         -1.049342   -6.509912   -8.000381 C.2        1 UNL1     0.1049
     11 C         -1.260914   -5.8573   -6.871861 C.2        1 UNL1     0.0801
     12 C         0.996552   -5.143298   -8.452064 C.ar        1 UNL1     0.0753
     13 C         0.840884   -4.616362   -7.130431 C.ar        1 UNL1     0.0305
     14 C         -0.368692   -4.85914   -6.347464 C.2        1 UNL1     0.0924
     15 N         -2.059806   -6.161657   -5.834718 N.pl3        1 UNL1     -0.3170
     16 C         -2.059552   -5.038446   -4.935468 C.3        1 UNL1     0.1275
     17 N         -0.723158   -4.374356   -5.16076 N.2        1 UNL1     -0.2557
     18 C         -3.11144   -4.055171   -5.439854 C.3        1 UNL1     0.0016
     19 C         -4.444899   -4.778621   -5.540341 C.3        1 UNL1     0.0026
     20 N         -4.797683   -5.294159   -4.224745 N.3        1 UNL1     -0.3018
     21 C         -3.815426   -6.202201   -3.628929 C.3        1 UNL1     0.0026
     22 C         -2.48494   -5.453509   -3.533214 C.3        1 UNL1     0.0016
     23 C         -6.175888   -5.735169   -4.142854 C.3        1 UNL1     0.0012
     24 C         -6.301134   -7.198134   -4.596509 C.3        1 UNL1     -0.0339
     25 C         -7.638873   -7.452999   -5.31034 C.3        1 UNL1     -0.0615
     26 C         -5.119235   -7.5746   -5.47296 C.3        1 UNL1     -0.0615
     27 C         2.097117   -4.808656   -9.237488 C.ar        1 UNL1     0.1347
     28 C         3.082676   -3.929103   -8.82626 C.ar        1 UNL1     0.0342
     29 C         2.933915   -3.461047   -7.5034 C.ar        1 UNL1     0.1435
     30 C         1.855647   -3.816069   -6.69191 C.ar        1 UNL1     0.0774
     31 O         3.751267   -2.513091   -6.995144 O.3        1 UNL1     -0.4436
     32 C         3.030838   -1.975134   -5.876012 C.3        1 UNL1     0.3143
     33 C         2.057352   -3.063597   -5.471308 C.2        1 UNL1     0.2504
     34 C         4.150691   -3.330939   -9.698982 C.3        1 UNL1     -0.0327
     35 O         3.96447   -1.828857   -4.798892 O.2        1 UNL1     -0.4528
     36 C         2.724638   1.108234   -2.738698 C.3        1 UNL1     0.0854
     37 C         1.326662   1.314355   -2.038199 C.3        1 UNL1     0.0236
     38 C         1.397689   1.628673   -0.467242 C.3        1 UNL1     0.1131
     39 C         2.25101   0.694817   0.482508 C.3        1 UNL1     0.0200
     40 C         2.182934   -0.963905   0.319893 C.3        1 UNL1     0.0661
     41 C         0.768672   -1.896755   0.234652 C.3        1 UNL1     0.0091
     42 C         0.425861   -3.458904   -0.663999 C.3        1 UNL1     0.0661
     43 C         -0.097985   -5.987264   -8.992406 C.2        1 UNL1     0.2131
     44 O         -0.284723   -6.166799   -10.18221 O.2        1 UNL1     -0.2851
     45 O         2.19622   -5.400723   -10.494896 O.3        1 UNL1     -0.5056
     46 O         1.574389   -3.27548   -4.381489 O.2        1 UNL1     -0.2836
     47 C         1.95286   -5.644365   -0.56477 C.3        1 UNL1     -0.0566
     48 O         -0.210741   -4.121942   0.499717 O.3        1 UNL1     -0.3909
     49 C         -0.407478   -0.978484   -0.012213 C.3        1 UNL1     -0.0577
     50 O         3.115932   -1.411808   -0.642718 O.3        1 UNL1     -0.3910
     51 O         3.841432   1.051332   -1.880232 O.3        1 UNL1     -0.3753
     52 C         0.226298   0.388174   -2.651663 C.3        1 UNL1     -0.0564
     53 O         0.113019   2.160708   0.097459 O.3        1 UNL1     -0.4608
     54 C         0.007668   3.158531   1.030829 C.2        1 UNL1     0.3042
     55 O         0.384426   3.128764   2.201728 O.2        1 UNL1     -0.2512
     56 C         -0.592873   4.42551   0.491544 C.3        1 UNL1     0.0332
     57 C         3.691538   1.368396   0.653813 C.3        1 UNL1     -0.0567
     58 C         2.231243   -0.764603   -6.411542 C.3        1 UNL1     0.0210
     59 C         3.533903   0.778256   -0.513952 C.3        1 UNL1     0.0372
     60 C         2.810616   -0.077571   -3.634039 C.2        1 UNL1     -0.0208
     61 C         3.763829   -1.002582   -3.754383 C.2        1 UNL1     0.0882
     62 H         1.496615   -4.427662   -2.266472 H        1 UNL1     0.0365
     63 H         1.176179   -5.823073   -3.722623 H        1 UNL1     0.0576
     64 H         -0.773358   -8.0074   -2.760958 H        1 UNL1     0.0615
     65 H         0.609269   -7.449468   -5.505938 H        1 UNL1     0.0622
     66 H         2.839275   1.986319   -3.389753 H        1 UNL1     0.0645
     67 H         0.965574   2.27759   -2.438642 H        1 UNL1     0.0362
     68 H         1.937679   2.587382   -0.495702 H        1 UNL1     0.0741
     69 H         1.926151   0.846532   1.503222 H        1 UNL1     0.0359
     70 H         2.618969   -1.268711   1.290474 H        1 UNL1     0.0600
     71 H         0.632743   -2.14012   1.306684 H        1 UNL1     0.0348
     72 H         1.520544   -3.386729   -0.587998 H        1 UNL1     0.0602
     73 H         2.005875   -0.051724   -4.326117 H        1 UNL1     0.0628
     74 H         4.588913   -1.132652   -3.053272 H        1 UNL1     0.1022
     75 H         -2.235913   -10.328294   -4.945785 H        1 UNL1     0.0279
     76 H         -2.875904   -9.711549   -6.416614 H        1 UNL1     0.0279
     77 H         -1.540679   -10.932972   -6.392141 H        1 UNL1     0.0279
     78 H         -2.42343   -7.808977   -7.55685 H        1 UNL1     0.1553
     79 H         -2.820721   -6.813462   -5.890316 H        1 UNL1     0.1484
     80 H         -3.167676   -3.205843   -4.748301 H        1 UNL1     0.0317
     81 H         -2.828867   -3.646437   -6.415938 H        1 UNL1     0.0317
     82 H         -4.414847   -5.585947   -6.286822 H        1 UNL1     0.0428
     83 H         -5.180073   -4.059788   -5.903451 H        1 UNL1     0.0428
     84 H         -4.065892   -6.511555   -2.60943 H        1 UNL1     0.0428
     85 H         -3.742953   -7.14748   -4.184368 H        1 UNL1     0.0428
     86 H         -1.830202   -6.096801   -2.975108 H        1 UNL1     0.0317
     87 H         -2.594203   -4.576872   -2.883088 H        1 UNL1     0.0317
     88 H         -6.494985   -5.66575   -3.094688 H        1 UNL1     0.0429
     89 H         -6.838822   -5.081992   -4.724792 H        1 UNL1     0.0429
     90 H         -6.243531   -7.852587   -3.718679 H        1 UNL1     0.0308
     91 H         -7.892974   -8.517205   -5.310868 H        1 UNL1     0.0233
     92 H         -8.445072   -6.892022   -4.831845 H        1 UNL1     0.0233
     93 H         -7.621359   -7.129597   -6.358166 H        1 UNL1     0.0233
     94 H         -5.442653   -8.247276   -6.274673 H        1 UNL1     0.0233
     95 H         -4.696273   -6.678221   -5.935096 H        1 UNL1     0.0233
     96 H         -4.337781   -8.076142   -4.895244 H        1 UNL1     0.0233
     97 H         4.074661   -2.248995   -9.752347 H        1 UNL1     0.0280
     98 H         5.159829   -3.543079   -9.322296 H        1 UNL1     0.0280
     99 H         4.061144   -3.734465   -10.720864 H        1 UNL1     0.0280
     100 H         1.75948   -4.931694   -11.184019 H        1 UNL1     0.2922
     101 H         1.465603   -6.39724   0.054436 H        1 UNL1     0.0236
     102 H         2.46856   -4.894009   0.033563 H        1 UNL1     0.0236
     103 H         2.757286   -6.189105   -1.086643 H        1 UNL1     0.0236
     104 H         -0.444297   -3.425739   1.144484 H        1 UNL1     0.2098
     105 H         -0.896536   -1.123273   -0.97225 H        1 UNL1     0.0234
     106 H         -1.146177   -0.959229   0.788961 H        1 UNL1     0.0234
     107 H         0.0   0.0   0.0 H        1 UNL1     0.0234
     108 H         3.399549   -0.631445   -1.156882 H        1 UNL1     0.2098
     109 H         0.606322   -0.208596   -3.492591 H        1 UNL1     0.0234
     110 H         -0.239642   -0.273676   -1.913695 H        1 UNL1     0.0234
     111 H         -0.613254   0.969697   -3.055308 H        1 UNL1     0.0234
     112 H         0.185016   5.036111   0.02314 H        1 UNL1     0.0342
     113 H         -1.407164   4.22896   -0.204259 H        1 UNL1     0.0342
     114 H         -1.006088   4.995496   1.335069 H        1 UNL1     0.0342
     115 H         4.43452   0.652935   1.032339 H        1 UNL1     0.0234
     116 H         4.091244   1.801472   -0.265278 H        1 UNL1     0.0234
     117 H         3.723955   2.14421   1.438035 H        1 UNL1     0.0234
     118 H         1.154959   -0.842557   -6.178002 H        1 UNL1     0.0309
     119 H         2.608561   0.195474   -6.045362 H        1 UNL1     0.0309
     120 H         2.248384   -0.700015   -7.504996 H        1 UNL1     0.0309
     121 H         3.525204   -0.304055   -0.387925 H        1 UNL1     0.0524
     122 H         4.291786   1.186628   0.175167 H        1 UNL1     0.0524
     123 H         2.563488   1.193364   -0.256904 H        1 UNL1     0.0524
@<TRIPOS>BOND
     1     1     2    1
     2     1    42    1
     3     2     3    2
     4     3     4    1
     5     4     5    2
     6     5     7    1
     7     6    75    1
     8     6    76    1
     9     6    77    1
    10     7     9   am
    11     9    10    1
    12    10    11    2
    13    10    43    1
    14    11    14    1
    15    11    15    1
    16    12    13   ar
    17    12    27   ar
    18    12    43    1
    19    13    14    1
    20    13    30   ar
    21    14    17    2
    22    15    16    1
    23    16    17    1
    24    16    18    1
    25    16    22    1
    26    18    19    1
    27    19    20    1
    28    20    21    1
    29    21    22    1
    30    23    24    1
    31    23    88    1
    32    23    89    1
    33    24    25    1
    34    24    26    1
    35    24    90    1
    36    25    91    1
    37    25    92    1
    38    25    93    1
    39    26    94    1
    40    26    95    1
    41    26    96    1
    42    27    28   ar
    43    28    29   ar
    44    29    30   ar
    45    29    31    1
    46    30    33    1
    47    31    32    1
    48    32    33    1
    49    32    35    1
    50    34    97    1
    51    34    98    1
    52    34    99    1
    53    35    61    1
    54    36    37    1
    55    36    60    1
    56    37    38    1
    57    38    39    1
    58    39    40    1
    59    40    41    1
    60    41    42    1
    61    45   100    1
    62    47   101    1
    63    47   102    1
    64    47   103    1
    65    48   104    1
    66    49   105    1
    67    49   106    1
    68    49   107    1
    69    50   108    1
    70    51    59    1
    71    52   109    1
    72    52   110    1
    73    52   111    1
    74    53    54    1
    75    54    55    2
    76    54    56    1
    77    56   112    1
    78    56   113    1
    79    56   114    1
    80    57   115    1
    81    57   116    1
    82    57   117    1
    83    58   118    1
    84    58   119    1
    85    58   120    1
    86    59   121    1
    87    59   122    1
    88    59   123    1
    89    60    61    2
    90     1    47    1
    91     1    62    1
    92     2    63    1
    93     3    64    1
    94     4    65    1
    95     5     6    1
    96     7     8    2
    97     9    78    1
    98    15    79    1
    99    18    80    1
   100    18    81    1
   101    19    82    1
   102    19    83    1
   103    20    23    1
   104    21    84    1
   105    21    85    1
   106    22    86    1
   107    22    87    1
   108    27    45    1
   109    28    34    1
   110    32    58    1
   111    33    46    2
   112    36    51    1
   113    36    66    1
   114    37    52    1
   115    37    67    1
   116    38    53    1
   117    38    68    1
   118    42    48    1
   119    42    72    1
   120    43    44    2
   121    60    73    1
   122    61    74    1
   123    39    69    1
   124    39    57    1
   125    40    70    1
   126    40    50    1
   127    41    71    1
   128    41    49    1
