@<TRIPOS>MOLECULE
*****
 123 128 0 0 0
SMALL
GASTEIGER

@<TRIPOS>ATOM
     1 C         5.167845   1.748254   0.486059 C.3        1 UNL1     0.0009
     2 C         6.603889   2.553849   -0.365899 C.2        1 UNL1     -0.0787
     3 C         7.885162   2.455238   -1.032728 C.2        1 UNL1     -0.0649
     4 C         8.762111   3.68996   -1.78955 C.2        1 UNL1     -0.0542
     5 C         9.781343   3.982116   -2.729171 C.2        1 UNL1     0.0115
     6 C         10.908686   3.356194   -3.595569 C.3        1 UNL1     -0.0348
     7 C         9.876349   5.465134   -3.336311 C.2        1 UNL1     0.2441
     8 O         10.700682   6.286807   -2.959674 O.2        1 UNL1     -0.2702
     9 N         9.125117   5.671772   -4.506398 N.am        1 UNL1     -0.2772
     10 C         7.842735   6.058748   -4.191647 C.2        1 UNL1     0.1049
     11 C         6.997074   5.087561   -3.898602 C.2        1 UNL1     0.0801
     12 C         6.545819   7.666103   -2.780352 C.ar        1 UNL1     0.0753
     13 C         5.787002   6.538459   -2.331771 C.ar        1 UNL1     0.0305
     14 C         5.903179   5.232502   -2.976777 C.2        1 UNL1     0.0924
     15 N         7.119368   3.758507   -4.057307 N.pl3        1 UNL1     -0.3170
     16 C         5.849705   3.15963   -3.741781 C.3        1 UNL1     0.1275
     17 N         5.214308   4.115317   -2.76165 N.2        1 UNL1     -0.2557
     18 C         4.995743   3.218351   -5.004716 C.3        1 UNL1     0.0016
     19 C         5.749526   2.533735   -6.133742 C.3        1 UNL1     0.0026
     20 N         6.019819   1.155739   -5.747612 N.3        1 UNL1     -0.3018
     21 C         6.784254   0.995698   -4.508905 C.3        1 UNL1     0.0026
     22 C         6.006601   1.686743   -3.387474 C.3        1 UNL1     0.0016
     23 C         6.463226   0.335727   -6.857393 C.3        1 UNL1     0.0012
     24 C         5.306875   0.086048   -7.838346 C.3        1 UNL1     -0.0339
     25 C         5.381547   1.032   -9.048161 C.3        1 UNL1     -0.0615
     26 C         5.293601   -1.370725   -8.267784 C.3        1 UNL1     -0.0615
     27 C         6.341815   8.934026   -2.241027 C.ar        1 UNL1     0.1347
     28 C         5.383648   9.204065   -1.280275 C.ar        1 UNL1     0.0342
     29 C         4.682338   8.069884   -0.818796 C.ar        1 UNL1     0.1435
     30 C         4.901153   6.787638   -1.323954 C.ar        1 UNL1     0.0774
     31 O         3.642122   8.183914   0.035579 O.3        1 UNL1     -0.4436
     32 C         2.920147   6.951142   -0.105478 C.3        1 UNL1     0.3143
     33 C         3.932831   5.957696   -0.638158 C.2        1 UNL1     0.2504
     34 C         4.937392   10.570396   -0.839713 C.3        1 UNL1     -0.0327
     35 O         2.560624   6.514987   1.211247 O.2        1 UNL1     -0.4528
     36 C         -0.683044   4.583104   0.818138 C.3        1 UNL1     0.0854
     37 C         -0.989328   3.322224   -0.078464 C.3        1 UNL1     0.0236
     38 C         -1.589353   2.061562   0.710487 C.3        1 UNL1     0.1131
     39 C         -0.862505   1.531018   2.011442 C.3        1 UNL1     0.0200
     40 C         0.798703   1.385257   2.051177 C.3        1 UNL1     0.0661
     41 C         1.756918   0.615849   0.881798 C.3        1 UNL1     0.0091
     42 C         3.46405   0.977954   0.316126 C.3        1 UNL1     0.0661
     43 C         7.494827   7.457842   -3.902079 C.2        1 UNL1     0.2131
     44 O         7.894192   8.35559   -4.62131 O.2        1 UNL1     -0.2851
     45 O         7.153815   9.968845   -2.700639 O.3        1 UNL1     -0.5056
     46 O         3.948769   4.75421   -0.506936 O.2        1 UNL1     -0.2836
     47 C         5.565438   1.319272   1.92407 C.3        1 UNL1     -0.0566
     48 O         3.912489   -0.433183   0.39805 O.3        1 UNL1     -0.3909
     49 C         0.921585   0.382901   -0.357334 C.3        1 UNL1     -0.0577
     50 O         1.399425   2.603185   2.442976 O.3        1 UNL1     -0.3910
     51 O         -0.805909   4.393982   2.209745 O.3        1 UNL1     -0.3753
     52 C         0.054069   3.161163   -1.231864 C.3        1 UNL1     -0.0564
     53 O         -2.192911   1.022317   -0.188409 O.3        1 UNL1     -0.4608
     54 C         -2.414711   -0.287616   0.147465 C.2        1 UNL1     0.3042
     55 O         -1.84156   -1.280513   -0.299179 O.2        1 UNL1     -0.2512
     56 C         -3.444898   -0.465729   1.226216 C.3        1 UNL1     0.0332
     57 C         -1.582303   2.200601   3.273078 C.3        1 UNL1     -0.0567
     58 C         1.844011   7.195966   -1.18877 C.3        1 UNL1     0.0210
     59 C         -1.118273   5.573317   2.949651 C.3        1 UNL1     0.0372
     60 C         0.645833   5.21191   0.586082 C.2        1 UNL1     -0.0208
     61 C         1.559613   5.64735   1.454496 C.2        1 UNL1     0.0882
     62 H         4.692144   2.732529   0.573373 H        1 UNL1     0.0365
     63 H         6.337887   3.607727   -0.260764 H        1 UNL1     0.0576
     64 H         8.34248   1.488237   -1.253812 H        1 UNL1     0.0615
     65 H         8.275472   4.605561   -1.442649 H        1 UNL1     0.0622
     66 H         -1.427867   5.329618   0.508297 H        1 UNL1     0.0645
     67 H         -1.855383   3.631475   -0.689095 H        1 UNL1     0.0362
     68 H         -2.536043   2.498711   1.062909 H        1 UNL1     0.0741
     69 H         -1.193995   0.520044   2.207538 H        1 UNL1     0.0359
     70 H         0.911181   0.725254   2.932544 H        1 UNL1     0.0600
     71 H         1.80074   -0.405155   1.3091 H        1 UNL1     0.0348
     72 H         3.359124   1.466557   1.295704 H        1 UNL1     0.0602
     73 H         0.762819   5.408736   -0.450654 H        1 UNL1     0.0628
     74 H         1.543005   5.437108   2.52443 H        1 UNL1     0.1022
     75 H         10.934515   2.247572   -3.463947 H        1 UNL1     0.0279
     76 H         10.807531   3.461841   -4.673379 H        1 UNL1     0.0279
     77 H         11.914904   3.638698   -3.252906 H        1 UNL1     0.0279
     78 H         9.062516   4.801626   -5.030806 H        1 UNL1     0.1553
     79 H         7.784017   3.330177   -4.675133 H        1 UNL1     0.1484
     80 H         4.034567   2.727632   -4.809516 H        1 UNL1     0.0317
     81 H         4.769038   4.25503   -5.275922 H        1 UNL1     0.0317
     82 H         6.68004   3.064805   -6.382781 H        1 UNL1     0.0428
     83 H         5.123574   2.588616   -7.024933 H        1 UNL1     0.0428
     84 H         6.904705   -0.047149   -4.199433 H        1 UNL1     0.0428
     85 H         7.814305   1.363541   -4.613802 H        1 UNL1     0.0428
     86 H         6.523811   1.436664   -2.479762 H        1 UNL1     0.0317
     87 H         5.027201   1.209297   -3.261307 H        1 UNL1     0.0317
     88 H         7.258889   0.8772   -7.385619 H        1 UNL1     0.0429
     89 H         6.896004   -0.609969   -6.506485 H        1 UNL1     0.0429
     90 H         4.354678   0.254645   -7.321518 H        1 UNL1     0.0308
     91 H         6.336078   0.931396   -9.573379 H        1 UNL1     0.0233
     92 H         4.565289   0.831634   -9.746147 H        1 UNL1     0.0233
     93 H         5.286213   2.086073   -8.760625 H        1 UNL1     0.0233
     94 H         4.600736   -1.51157   -9.104406 H        1 UNL1     0.0233
     95 H         6.29077   -1.670925   -8.601695 H        1 UNL1     0.0233
     96 H         4.983717   -2.025461   -7.448479 H        1 UNL1     0.0233
     97 H         4.138418   10.521158   -0.105923 H        1 UNL1     0.0280
     98 H         5.748235   11.13703   -0.363565 H        1 UNL1     0.0280
     99 H         4.571813   11.138012   -1.711067 H        1 UNL1     0.0280
     100 H         6.686612   10.719918   -3.021939 H        1 UNL1     0.2922
     101 H         4.699885   0.897376   2.43444 H        1 UNL1     0.0236
     102 H         6.02795   2.1214   2.498227 H        1 UNL1     0.0236
     103 H         6.312393   0.507946   1.922592 H        1 UNL1     0.0236
     104 H         4.327419   -0.560456   1.273609 H        1 UNL1     0.2098
     105 H         0.708545   1.281533   -0.93082 H        1 UNL1     0.0234
     106 H         1.290266   -0.405436   -1.013479 H        1 UNL1     0.0234
     107 H         0.0   -0.0   0.0 H        1 UNL1     0.0234
     108 H         1.215355   3.256517   1.740806 H        1 UNL1     0.2098
     109 H         1.080683   3.060086   -0.852973 H        1 UNL1     0.0234
     110 H         -0.172438   2.326212   -1.90365 H        1 UNL1     0.0234
     111 H         0.065996   4.038481   -1.892256 H        1 UNL1     0.0234
     112 H         -3.558355   -1.528516   1.460644 H        1 UNL1     0.0342
     113 H         -3.205254   0.108135   2.120137 H        1 UNL1     0.0342
     114 H         -4.408177   -0.100372   0.844413 H        1 UNL1     0.0342
     115 H         -2.651927   1.952491   3.312254 H        1 UNL1     0.0234
     116 H         -1.145011   1.921166   4.233672 H        1 UNL1     0.0234
     117 H         -1.620791   3.302443   3.224041 H        1 UNL1     0.0234
     118 H         0.942758   7.681756   -0.775542 H        1 UNL1     0.0309
     119 H         2.212266   7.784856   -2.034819 H        1 UNL1     0.0309
     120 H         1.456028   6.263926   -1.614066 H        1 UNL1     0.0309
     121 H         -0.280236   6.261464   2.842385 H        1 UNL1     0.0524
     122 H         -2.017449   6.082715   2.564901 H        1 UNL1     0.0524
     123 H         -1.271877   5.330134   3.997201 H        1 UNL1     0.0524
@<TRIPOS>BOND
     1     1     2    1
     2     1    42    1
     3     2     3    2
     4     3     4    1
     5     4     5    2
     6     5     7    1
     7     6    75    1
     8     6    76    1
     9     6    77    1
    10     7     9   am
    11     9    10    1
    12    10    11    2
    13    10    43    1
    14    11    14    1
    15    11    15    1
    16    12    13   ar
    17    12    27   ar
    18    12    43    1
    19    13    14    1
    20    13    30   ar
    21    14    17    2
    22    15    16    1
    23    16    17    1
    24    16    18    1
    25    16    22    1
    26    18    19    1
    27    19    20    1
    28    20    21    1
    29    21    22    1
    30    23    24    1
    31    23    88    1
    32    23    89    1
    33    24    25    1
    34    24    26    1
    35    24    90    1
    36    25    91    1
    37    25    92    1
    38    25    93    1
    39    26    94    1
    40    26    95    1
    41    26    96    1
    42    27    28   ar
    43    28    29   ar
    44    29    30   ar
    45    29    31    1
    46    30    33    1
    47    31    32    1
    48    32    33    1
    49    32    35    1
    50    34    97    1
    51    34    98    1
    52    34    99    1
    53    35    61    1
    54    36    37    1
    55    36    60    1
    56    37    38    1
    57    38    39    1
    58    39    40    1
    59    40    41    1
    60    41    42    1
    61    45   100    1
    62    47   101    1
    63    47   102    1
    64    47   103    1
    65    48   104    1
    66    49   105    1
    67    49   106    1
    68    49   107    1
    69    50   108    1
    70    51    59    1
    71    52   109    1
    72    52   110    1
    73    52   111    1
    74    53    54    1
    75    54    55    2
    76    54    56    1
    77    56   112    1
    78    56   113    1
    79    56   114    1
    80    57   115    1
    81    57   116    1
    82    57   117    1
    83    58   118    1
    84    58   119    1
    85    58   120    1
    86    59   121    1
    87    59   122    1
    88    59   123    1
    89    60    61    2
    90     1    47    1
    91     1    62    1
    92     2    63    1
    93     3    64    1
    94     4    65    1
    95     5     6    1
    96     7     8    2
    97     9    78    1
    98    15    79    1
    99    18    80    1
   100    18    81    1
   101    19    82    1
   102    19    83    1
   103    20    23    1
   104    21    84    1
   105    21    85    1
   106    22    86    1
   107    22    87    1
   108    27    45    1
   109    28    34    1
   110    32    58    1
   111    33    46    2
   112    36    51    1
   113    36    66    1
   114    37    52    1
   115    37    67    1
   116    38    53    1
   117    38    68    1
   118    42    48    1
   119    42    72    1
   120    43    44    2
   121    60    73    1
   122    61    74    1
   123    39    69    1
   124    39    57    1
   125    40    70    1
   126    40    50    1
   127    41    71    1
   128    41    49    1
