@<TRIPOS>MOLECULE
*****
 123 128 0 0 0
SMALL
GASTEIGER

@<TRIPOS>ATOM
     1 C         3.381315   0.723099   -2.288705 C.3        1 UNL1     0.0009
     2 C         4.361666   2.293954   -2.380154 C.2        1 UNL1     -0.0787
     3 C         4.693134   3.530084   -3.057029 C.2        1 UNL1     -0.0649
     4 C         5.718583   4.766604   -2.522397 C.2        1 UNL1     -0.0542
     5 C         6.066935   6.131736   -2.671207 C.2        1 UNL1     0.0115
     6 C         5.849932   7.395609   -3.548052 C.3        1 UNL1     -0.0348
     7 C         6.91123   6.849134   -1.50953 C.2        1 UNL1     0.2441
     8 O         8.112176   7.065289   -1.59632 O.2        1 UNL1     -0.2702
     9 N         6.135543   7.445792   -0.500342 N.am        1 UNL1     -0.2772
     10 C         5.85451   6.53434   0.491423 C.2        1 UNL1     0.1049
     11 C         4.830129   5.730677   0.270085 C.2        1 UNL1     0.0801
     12 C         6.921101   4.828514   1.977988 C.ar        1 UNL1     0.0753
     13 C         5.900551   3.924749   1.541762 C.ar        1 UNL1     0.0305
     14 C         4.745869   4.387011   0.7749 C.2        1 UNL1     0.0924
     15 N         3.876499   5.787067   -0.675398 N.pl3        1 UNL1     -0.3170
     16 C         2.897945   4.776401   -0.373334 C.3        1 UNL1     0.1275
     17 N         3.667927   3.717214   0.376982 N.2        1 UNL1     -0.2557
     18 C         1.919827   5.37965   0.630198 C.3        1 UNL1     0.0016
     19 C         1.342318   6.656002   0.039439 C.3        1 UNL1     0.0026
     20 N         0.674093   6.331101   -1.213136 N.3        1 UNL1     -0.3018
     21 C         1.520492   5.689138   -2.221035 C.3        1 UNL1     0.0026
     22 C         2.08629   4.406989   -1.607959 C.3        1 UNL1     0.0016
     23 C         -0.160266   7.409978   -1.703559 C.3        1 UNL1     0.0012
     24 C         -1.201493   7.809028   -0.646033 C.3        1 UNL1     -0.0339
     25 C         -0.531073   8.357311   0.624392 C.3        1 UNL1     -0.0615
     26 C         -2.185028   8.806   -1.233812 C.3        1 UNL1     -0.0615
     27 C         7.954344   4.403337   2.809703 C.ar        1 UNL1     0.1347
     28 C         8.050364   3.113479   3.30072 C.ar        1 UNL1     0.0342
     29 C         7.062049   2.229153   2.818678 C.ar        1 UNL1     0.1435
     30 C         6.041662   2.63219   1.956362 C.ar        1 UNL1     0.0774
     31 O         6.955124   0.967457   3.289526 O.3        1 UNL1     -0.4436
     32 C         5.619657   0.565375   2.949334 C.3        1 UNL1     0.3143
     33 C         5.224677   1.44921   1.783556 C.2        1 UNL1     0.2504
     34 C         8.978904   2.651148   4.388913 C.3        1 UNL1     -0.0327
     35 O         5.692722   -0.775764   2.450076 O.2        1 UNL1     -0.4528
     36 C         2.377138   -2.397842   3.335431 C.3        1 UNL1     0.0854
     37 C         0.914442   -1.94753   2.954302 C.3        1 UNL1     0.0236
     38 C         0.034974   -3.064777   2.212656 C.3        1 UNL1     0.1131
     39 C         0.62352   -3.818624   0.952657 C.3        1 UNL1     0.0200
     40 C         1.438868   -2.974123   -0.232445 C.3        1 UNL1     0.0661
     41 C         0.893972   -1.563157   -1.000477 C.3        1 UNL1     0.0091
     42 C         1.830606   -0.133361   -1.666662 C.3        1 UNL1     0.0661
     43 C         6.793354   6.254674   1.588105 C.2        1 UNL1     0.2131
     44 O         7.335136   7.166908   2.185633 O.2        1 UNL1     -0.2851
     45 O         8.932555   5.335002   3.151085 O.3        1 UNL1     -0.5056
     46 O         4.430789   1.219367   0.898813 O.2        1 UNL1     -0.2836
     47 C         3.924059   -0.311565   -3.310899 C.3        1 UNL1     -0.0566
     48 O         1.101404   -0.1116   -2.95775 O.3        1 UNL1     -0.3909
     49 C         -0.272053   -1.000981   -0.218276 C.3        1 UNL1     -0.0577
     50 O         2.808348   -2.848528   0.093858 O.3        1 UNL1     -0.3910
     51 O         2.788299   -3.64793   2.829804 O.3        1 UNL1     -0.3753
     52 C         0.857736   -0.439078   2.546496 C.3        1 UNL1     -0.0564
     53 O         -1.431712   -2.748709   2.177159 O.3        1 UNL1     -0.4608
     54 C         -2.382417   -3.461593   1.4946 C.2        1 UNL1     0.3042
     55 O         -3.266903   -3.017735   0.763495 O.2        1 UNL1     -0.2512
     56 C         -2.24559   -4.949435   1.650543 C.3        1 UNL1     0.0332
     57 C         1.267158   -5.189208   1.467829 C.3        1 UNL1     -0.0567
     58 C         4.733081   0.918813   4.166132 C.3        1 UNL1     0.0210
     59 C         4.199266   -3.79988   2.681646 C.3        1 UNL1     0.0372
     60 C         3.446014   -1.42194   2.988617 C.2        1 UNL1     -0.0208
     61 C         4.636073   -1.610251   2.41674 C.2        1 UNL1     0.0882
     62 H         3.865115   0.499505   -1.33024 H        1 UNL1     0.0365
     63 H         5.016943   2.175665   -1.514654 H        1 UNL1     0.0576
     64 H         4.152768   3.85751   -3.948041 H        1 UNL1     0.0615
     65 H         6.261712   4.312694   -1.689054 H        1 UNL1     0.0622
     66 H         2.369864   -2.459437   4.432791 H        1 UNL1     0.0645
     67 H         0.396231   -1.869518   3.925863 H        1 UNL1     0.0362
     68 H         -0.011312   -3.821852   3.010289 H        1 UNL1     0.0741
     69 H         -0.192818   -4.268968   0.403849 H        1 UNL1     0.0359
     70 H         1.416408   -3.721288   -1.048717 H        1 UNL1     0.0600
     71 H         0.376118   -2.006105   -1.873736 H        1 UNL1     0.0348
     72 H         2.554482   -0.956764   -1.581061 H        1 UNL1     0.0602
     73 H         3.193508   -0.470967   3.387539 H        1 UNL1     0.0628
     74 H         4.948121   -2.536444   1.932973 H        1 UNL1     0.1022
     75 H         4.761361   7.627581   -3.638816 H        1 UNL1     0.0279
     76 H         6.256969   8.328273   -3.163958 H        1 UNL1     0.0279
     77 H         6.12597   7.235483   -4.600603 H        1 UNL1     0.0279
     78 H         5.248468   7.757657   -0.890105 H        1 UNL1     0.1553
     79 H         3.659016   6.615372   -1.198412 H        1 UNL1     0.1484
     80 H         1.133093   4.647066   0.847311 H        1 UNL1     0.0317
     81 H         2.418349   5.595387   1.581295 H        1 UNL1     0.0317
     82 H         2.117529   7.421438   -0.112443 H        1 UNL1     0.0428
     83 H         0.649039   7.070564   0.771936 H        1 UNL1     0.0428
     84 H         0.976722   5.383602   -3.120354 H        1 UNL1     0.0428
     85 H         2.296567   6.370103   -2.596951 H        1 UNL1     0.0428
     86 H         2.588256   3.899264   -2.4106 H        1 UNL1     0.0317
     87 H         1.268736   3.723757   -1.347391 H        1 UNL1     0.0317
     88 H         0.484045   8.276026   -1.903855 H        1 UNL1     0.0429
     89 H         -0.642379   7.141519   -2.652384 H        1 UNL1     0.0429
     90 H         -1.794469   6.927406   -0.375227 H        1 UNL1     0.0308
     91 H         -0.30133   9.422398   0.524844 H        1 UNL1     0.0233
     92 H         -1.17396   8.20896   1.495194 H        1 UNL1     0.0233
     93 H         0.413374   7.848   0.851236 H        1 UNL1     0.0233
     94 H         -2.806341   8.320279   -1.993997 H        1 UNL1     0.0233
     95 H         -2.846413   9.185032   -0.449677 H        1 UNL1     0.0233
     96 H         -1.667876   9.650385   -1.698072 H        1 UNL1     0.0233
     97 H         8.808587   1.612409   4.655828 H        1 UNL1     0.0280
     98 H         10.032901   2.715324   4.088536 H        1 UNL1     0.0280
     99 H         8.828272   3.268542   5.289596 H        1 UNL1     0.0280
     100 H         8.725353   6.223152   2.918965 H        1 UNL1     0.2922
     101 H         4.204287   -1.228319   -2.792544 H        1 UNL1     0.0236
     102 H         4.737091   0.076847   -3.923351 H        1 UNL1     0.0236
     103 H         3.151987   -0.62367   -4.03387 H        1 UNL1     0.0236
     104 H         0.224402   0.287375   -2.794481 H        1 UNL1     0.2098
     105 H         -1.211051   -0.978749   -0.765634 H        1 UNL1     0.0234
     106 H         -0.418463   -1.447724   0.765041 H        1 UNL1     0.0234
     107 H         0.0   0.0   0.0 H        1 UNL1     0.0234
     108 H         3.138167   -2.04068   -0.34474 H        1 UNL1     0.2098
     109 H         1.799044   0.085667   2.761653 H        1 UNL1     0.0234
     110 H         0.585175   -0.287027   1.496575 H        1 UNL1     0.0234
     111 H         0.081646   0.102008   3.104043 H        1 UNL1     0.0234
     112 H         -2.119002   -5.416419   0.669092 H        1 UNL1     0.0342
     113 H         -1.429003   -5.217764   2.319145 H        1 UNL1     0.0342
     114 H         -3.175851   -5.335375   2.089667 H        1 UNL1     0.0342
     115 H         1.321096   -5.228245   2.564531 H        1 UNL1     0.0234
     116 H         0.736009   -6.082488   1.133194 H        1 UNL1     0.0234
     117 H         2.331025   -5.304427   1.197918 H        1 UNL1     0.0234
     118 H         4.816641   0.168587   4.971851 H        1 UNL1     0.0309
     119 H         4.943779   1.911097   4.577448 H        1 UNL1     0.0309
     120 H         3.664695   0.911513   3.924047 H        1 UNL1     0.0309
     121 H         4.448154   -4.830365   2.933666 H        1 UNL1     0.0524
     122 H         4.532762   -3.621641   1.645766 H        1 UNL1     0.0524
     123 H         4.72253   -3.115343   3.343232 H        1 UNL1     0.0524
@<TRIPOS>BOND
     1     1     2    1
     2     1    42    1
     3     2     3    2
     4     3     4    1
     5     4     5    2
     6     5     7    1
     7     6    75    1
     8     6    76    1
     9     6    77    1
    10     7     9   am
    11     9    10    1
    12    10    11    2
    13    10    43    1
    14    11    14    1
    15    11    15    1
    16    12    13   ar
    17    12    27   ar
    18    12    43    1
    19    13    14    1
    20    13    30   ar
    21    14    17    2
    22    15    16    1
    23    16    17    1
    24    16    18    1
    25    16    22    1
    26    18    19    1
    27    19    20    1
    28    20    21    1
    29    21    22    1
    30    23    24    1
    31    23    88    1
    32    23    89    1
    33    24    25    1
    34    24    26    1
    35    24    90    1
    36    25    91    1
    37    25    92    1
    38    25    93    1
    39    26    94    1
    40    26    95    1
    41    26    96    1
    42    27    28   ar
    43    28    29   ar
    44    29    30   ar
    45    29    31    1
    46    30    33    1
    47    31    32    1
    48    32    33    1
    49    32    35    1
    50    34    97    1
    51    34    98    1
    52    34    99    1
    53    35    61    1
    54    36    37    1
    55    36    60    1
    56    37    38    1
    57    38    39    1
    58    39    40    1
    59    40    41    1
    60    41    42    1
    61    45   100    1
    62    47   101    1
    63    47   102    1
    64    47   103    1
    65    48   104    1
    66    49   105    1
    67    49   106    1
    68    49   107    1
    69    50   108    1
    70    51    59    1
    71    52   109    1
    72    52   110    1
    73    52   111    1
    74    53    54    1
    75    54    55    2
    76    54    56    1
    77    56   112    1
    78    56   113    1
    79    56   114    1
    80    57   115    1
    81    57   116    1
    82    57   117    1
    83    58   118    1
    84    58   119    1
    85    58   120    1
    86    59   121    1
    87    59   122    1
    88    59   123    1
    89    60    61    2
    90     1    47    1
    91     1    62    1
    92     2    63    1
    93     3    64    1
    94     4    65    1
    95     5     6    1
    96     7     8    2
    97     9    78    1
    98    15    79    1
    99    18    80    1
   100    18    81    1
   101    19    82    1
   102    19    83    1
   103    20    23    1
   104    21    84    1
   105    21    85    1
   106    22    86    1
   107    22    87    1
   108    27    45    1
   109    28    34    1
   110    32    58    1
   111    33    46    2
   112    36    51    1
   113    36    66    1
   114    37    52    1
   115    37    67    1
   116    38    53    1
   117    38    68    1
   118    42    48    1
   119    42    72    1
   120    43    44    2
   121    60    73    1
   122    61    74    1
   123    39    69    1
   124    39    57    1
   125    40    70    1
   126    40    50    1
   127    41    71    1
   128    41    49    1
