@<TRIPOS>MOLECULE
*****
 123 128 0 0 0
SMALL
GASTEIGER

@<TRIPOS>ATOM
     1 C         -2.919888   -2.511787   -3.889351 C.3        1 UNL1     0.0009
     2 C         -2.96318   -3.029764   -5.668919 C.2        1 UNL1     -0.0787
     3 C         -3.451919   -2.845532   -7.019193 C.2        1 UNL1     -0.0649
     4 C         -2.980299   -3.673551   -8.418591 C.2        1 UNL1     -0.0542
     5 C         -2.949788   -3.63714   -9.834508 C.2        1 UNL1     0.0115
     6 C         -3.476535   -2.878531   -11.083658 C.3        1 UNL1     -0.0348
     7 C         -1.937981   -4.60878   -10.614989 C.2        1 UNL1     0.2441
     8 O         -2.296907   -5.642299   -11.162287 O.2        1 UNL1     -0.2702
     9 N         -0.66367   -4.064575   -10.85189 N.am        1 UNL1     -0.2772
     10 C         0.171815   -4.317504   -9.788257 C.2        1 UNL1     0.1049
     11 C         0.079415   -3.487299   -8.765298 C.2        1 UNL1     0.0801
     12 C         0.963776   -6.149105   -8.279825 C.ar        1 UNL1     0.0753
     13 C         0.648046   -5.279538   -7.187681 C.ar        1 UNL1     0.0305
     14 C         0.319266   -3.871862   -7.400762 C.2        1 UNL1     0.0924
     15 N         -0.549791   -2.303631   -8.667535 N.pl3        1 UNL1     -0.3170
     16 C         -0.199888   -1.723523   -7.398167 C.3        1 UNL1     0.1275
     17 N         0.100115   -2.907412   -6.511529 N.2        1 UNL1     -0.2557
     18 C         1.124068   -0.989039   -7.58625 C.3        1 UNL1     0.0016
     19 C         0.965635   0.017879   -8.714348 C.3        1 UNL1     0.0026
     20 N         -0.102993   0.944586   -8.367539 N.3        1 UNL1     -0.3018
     21 C         -1.403596   0.324274   -8.106743 C.3        1 UNL1     0.0026
     22 C         -1.222093   -0.679986   -6.967264 C.3        1 UNL1     0.0016
     23 C         -0.13661   2.112851   -9.224669 C.3        1 UNL1     0.0012
     24 C         0.260449   3.370874   -8.436331 C.3        1 UNL1     -0.0339
     25 C         1.784793   3.465593   -8.258962 C.3        1 UNL1     -0.0615
     26 C         -0.301517   4.608778   -9.113508 C.3        1 UNL1     -0.0615
     27 C         1.3932   -7.455952   -8.061043 C.ar        1 UNL1     0.1347
     28 C         1.582568   -7.990534   -6.799135 C.ar        1 UNL1     0.0342
     29 C         1.218757   -7.132263   -5.739806 C.ar        1 UNL1     0.1435
     30 C         0.752741   -5.832991   -5.944603 C.ar        1 UNL1     0.0774
     31 O         1.44836   -7.466703   -4.451226 O.3        1 UNL1     -0.4436
     32 C         1.40375   -6.220676   -3.739679 C.3        1 UNL1     0.3143
     33 C         0.577933   -5.296161   -4.611178 C.2        1 UNL1     0.2504
     34 C         2.27488   -9.287719   -6.485905 C.3        1 UNL1     -0.0327
     35 O         0.653863   -6.442431   -2.538951 O.2        1 UNL1     -0.4528
     36 C         2.056863   -4.02175   0.026197 C.3        1 UNL1     0.0854
     37 C         2.171882   -2.450386   -0.045271 C.3        1 UNL1     0.0236
     38 C         1.488998   -1.666508   1.175773 C.3        1 UNL1     0.1131
     39 C         -0.002923   -1.996974   1.584714 C.3        1 UNL1     0.0200
     40 C         -1.175742   -2.193834   0.415021 C.3        1 UNL1     0.0661
     41 C         -1.4843   -1.131911   -0.871338 C.3        1 UNL1     0.0091
     42 C         -2.086136   -1.465738   -2.571854 C.3        1 UNL1     0.0661
     43 C         0.904673   -5.584971   -9.651145 C.2        1 UNL1     0.2131
     44 O         1.501448   -6.059652   -10.6005 O.2        1 UNL1     -0.2851
     45 O         1.635957   -8.250953   -9.179292 O.3        1 UNL1     -0.5056
     46 O         -0.091534   -4.344257   -4.277193 O.2        1 UNL1     -0.2836
     47 C         -4.229224   -2.937106   -3.171908 C.3        1 UNL1     -0.0566
     48 O         -3.108048   -0.391489   -2.543518 O.3        1 UNL1     -0.3909
     49 C         -0.32749   -0.165413   -0.994489 C.3        1 UNL1     -0.0577
     50 O         -1.206648   -3.530362   -0.043739 O.3        1 UNL1     -0.3910
     51 O         1.228824   -4.533082   1.046159 O.3        1 UNL1     -0.3753
     52 C         2.092883   -1.92755   -1.516784 C.3        1 UNL1     -0.0564
     53 O         1.905658   -0.228089   1.274122 O.3        1 UNL1     -0.4608
     54 C         1.323723   0.714942   2.080332 C.2        1 UNL1     0.3042
     55 O         0.784588   0.534696   3.171516 O.2        1 UNL1     -0.2512
     56 C         1.435833   2.114578   1.546323 C.3        1 UNL1     0.0332
     57 C         0.048371   -3.063419   2.775612 C.3        1 UNL1     -0.0567
     58 C         2.85665   -5.693325   -3.689568 C.3        1 UNL1     0.0210
     59 C         1.901065   -5.328127   2.021792 C.3        1 UNL1     0.0372
     60 C         1.634009   -4.679565   -1.24015 C.2        1 UNL1     -0.0208
     61 C         0.741668   -5.647065   -1.45559 C.2        1 UNL1     0.0882
     62 H         -2.186027   -3.30363   -3.696621 H        1 UNL1     0.0365
     63 H         -2.34231   -3.927444   -5.634831 H        1 UNL1     0.0576
     64 H         -4.08701   -1.998305   -7.287472 H        1 UNL1     0.0615
     65 H         -2.424833   -4.534635   -8.037178 H        1 UNL1     0.0622
     66 H         3.083505   -4.365306   0.21599 H        1 UNL1     0.0645
     67 H         3.242214   -2.251346   0.137299 H        1 UNL1     0.0362
     68 H         2.10861   -2.0415   2.004618 H        1 UNL1     0.0741
     69 H         -0.391663   -1.177744   2.174757 H        1 UNL1     0.0359
     70 H         -2.085086   -2.094162   1.038093 H        1 UNL1     0.0600
     71 H         -2.257302   -0.487379   -0.408732 H        1 UNL1     0.0348
     72 H         -2.356296   -2.34939   -1.975626 H        1 UNL1     0.0602
     73 H         2.261415   -4.350646   -2.030987 H        1 UNL1     0.0628
     74 H         0.0231   -5.999329   -0.714775 H        1 UNL1     0.1022
     75 H         -4.460204   -2.397581   -10.864305 H        1 UNL1     0.0279
     76 H         -2.877485   -2.039305   -11.429936 H        1 UNL1     0.0279
     77 H         -3.744673   -3.553677   -11.909479 H        1 UNL1     0.0279
     78 H         -0.736269   -3.054124   -10.950868 H        1 UNL1     0.1553
     79 H         -0.826249   -1.75274   -9.459383 H        1 UNL1     0.1484
     80 H         1.396504   -0.496444   -6.64503 H        1 UNL1     0.0317
     81 H         1.931868   -1.691597   -7.8176 H        1 UNL1     0.0317
     82 H         0.764217   -0.476528   -9.676068 H        1 UNL1     0.0428
     83 H         1.921558   0.528996   -8.832751 H        1 UNL1     0.0428
     84 H         -2.167812   1.032209   -7.771163 H        1 UNL1     0.0428
     85 H         -1.833178   -0.121647   -9.014449 H        1 UNL1     0.0428
     86 H         -2.211496   -1.014191   -6.715516 H        1 UNL1     0.0317
     87 H         -0.890903   -0.160924   -6.059528 H        1 UNL1     0.0317
     88 H         0.590082   1.963702   -10.033971 H        1 UNL1     0.0429
     89 H         -1.121022   2.23437   -9.694711 H        1 UNL1     0.0429
     90 H         -0.204959   3.334834   -7.444207 H        1 UNL1     0.0308
     91 H         2.132352   4.499036   -8.350068 H        1 UNL1     0.0233
     92 H         2.085759   3.070466   -7.285873 H        1 UNL1     0.0233
     93 H         2.329711   2.879424   -9.008833 H        1 UNL1     0.0233
     94 H         0.252265   4.819625   -10.03476 H        1 UNL1     0.0233
     95 H         -1.349534   4.445658   -9.379994 H        1 UNL1     0.0233
     96 H         -0.235127   5.484787   -8.462226 H        1 UNL1     0.0233
     97 H         2.399348   -9.435471   -5.417304 H        1 UNL1     0.0280
     98 H         1.708226   -10.156567   -6.845435 H        1 UNL1     0.0280
     99 H         3.272631   -9.296052   -6.954434 H        1 UNL1     0.0280
     100 H         2.381136   -8.820286   -9.100608 H        1 UNL1     0.2922
     101 H         -4.207629   -2.598573   -2.136251 H        1 UNL1     0.0236
     102 H         -4.432985   -4.004583   -3.24909 H        1 UNL1     0.0236
     103 H         -5.117282   -2.449303   -3.607331 H        1 UNL1     0.0236
     104 H         -3.98638   -0.819861   -2.543515 H        1 UNL1     0.2098
     105 H         0.516849   -0.545771   -1.563902 H        1 UNL1     0.0234
     106 H         -0.601049   0.830088   -1.343874 H        1 UNL1     0.0234
     107 H         0.0   0.0   0.0 H        1 UNL1     0.0234
     108 H         -2.14509   -3.791802   -0.112624 H        1 UNL1     0.2098
     109 H         2.628987   -0.977525   -1.650033 H        1 UNL1     0.0234
     110 H         2.450364   -2.656287   -2.252238 H        1 UNL1     0.0234
     111 H         1.056441   -1.729139   -1.820706 H        1 UNL1     0.0234
     112 H         0.82747   2.217979   0.642693 H        1 UNL1     0.0342
     113 H         1.159931   2.860171   2.290509 H        1 UNL1     0.0342
     114 H         2.483872   2.293059   1.268973 H        1 UNL1     0.0342
     115 H         0.607658   -2.682433   3.641196 H        1 UNL1     0.0234
     116 H         -0.934352   -3.378162   3.132322 H        1 UNL1     0.0234
     117 H         0.62781   -3.969912   2.529717 H        1 UNL1     0.0234
     118 H         3.440027   -6.000624   -4.575145 H        1 UNL1     0.0309
     119 H         2.915422   -4.605607   -3.581776 H        1 UNL1     0.0309
     120 H         3.427259   -6.112171   -2.853458 H        1 UNL1     0.0309
     121 H         2.405791   -4.649684   2.70905 H        1 UNL1     0.0524
     122 H         1.202685   -5.942143   2.614487 H        1 UNL1     0.0524
     123 H         2.624031   -5.981137   1.541175 H        1 UNL1     0.0524
@<TRIPOS>BOND
     1     1     2    1
     2     1    42    1
     3     2     3    2
     4     3     4    1
     5     4     5    2
     6     5     7    1
     7     6    75    1
     8     6    76    1
     9     6    77    1
    10     7     9   am
    11     9    10    1
    12    10    11    2
    13    10    43    1
    14    11    14    1
    15    11    15    1
    16    12    13   ar
    17    12    27   ar
    18    12    43    1
    19    13    14    1
    20    13    30   ar
    21    14    17    2
    22    15    16    1
    23    16    17    1
    24    16    18    1
    25    16    22    1
    26    18    19    1
    27    19    20    1
    28    20    21    1
    29    21    22    1
    30    23    24    1
    31    23    88    1
    32    23    89    1
    33    24    25    1
    34    24    26    1
    35    24    90    1
    36    25    91    1
    37    25    92    1
    38    25    93    1
    39    26    94    1
    40    26    95    1
    41    26    96    1
    42    27    28   ar
    43    28    29   ar
    44    29    30   ar
    45    29    31    1
    46    30    33    1
    47    31    32    1
    48    32    33    1
    49    32    35    1
    50    34    97    1
    51    34    98    1
    52    34    99    1
    53    35    61    1
    54    36    37    1
    55    36    60    1
    56    37    38    1
    57    38    39    1
    58    39    40    1
    59    40    41    1
    60    41    42    1
    61    45   100    1
    62    47   101    1
    63    47   102    1
    64    47   103    1
    65    48   104    1
    66    49   105    1
    67    49   106    1
    68    49   107    1
    69    50   108    1
    70    51    59    1
    71    52   109    1
    72    52   110    1
    73    52   111    1
    74    53    54    1
    75    54    55    2
    76    54    56    1
    77    56   112    1
    78    56   113    1
    79    56   114    1
    80    57   115    1
    81    57   116    1
    82    57   117    1
    83    58   118    1
    84    58   119    1
    85    58   120    1
    86    59   121    1
    87    59   122    1
    88    59   123    1
    89    60    61    2
    90     1    47    1
    91     1    62    1
    92     2    63    1
    93     3    64    1
    94     4    65    1
    95     5     6    1
    96     7     8    2
    97     9    78    1
    98    15    79    1
    99    18    80    1
   100    18    81    1
   101    19    82    1
   102    19    83    1
   103    20    23    1
   104    21    84    1
   105    21    85    1
   106    22    86    1
   107    22    87    1
   108    27    45    1
   109    28    34    1
   110    32    58    1
   111    33    46    2
   112    36    51    1
   113    36    66    1
   114    37    52    1
   115    37    67    1
   116    38    53    1
   117    38    68    1
   118    42    48    1
   119    42    72    1
   120    43    44    2
   121    60    73    1
   122    61    74    1
   123    39    69    1
   124    39    57    1
   125    40    70    1
   126    40    50    1
   127    41    71    1
   128    41    49    1
