@<TRIPOS>MOLECULE
*****
 123 128 0 0 0
SMALL
GASTEIGER

@<TRIPOS>ATOM
     1 C         0.341504   -1.345998   -4.081919 C.3        1 UNL1     0.0009
     2 C         -0.726879   -2.568445   -4.977027 C.2        1 UNL1     -0.0787
     3 C         -0.917249   -3.879631   -5.560634 C.2        1 UNL1     -0.0649
     4 C         -2.335121   -4.529744   -6.218926 C.2        1 UNL1     -0.0542
     5 C         -3.006995   -5.724117   -6.578284 C.2        1 UNL1     0.0115
     6 C         -2.833654   -7.256969   -6.761694 C.3        1 UNL1     -0.0348
     7 C         -4.596451   -5.684819   -6.799815 C.2        1 UNL1     0.2441
     8 O         -5.113602   -5.668518   -7.908334 O.2        1 UNL1     -0.2702
     9 N         -5.358406   -5.933645   -5.644973 N.am        1 UNL1     -0.2772
     10 C         -5.589061   -4.762598   -4.960305 C.2        1 UNL1     0.1049
     11 C         -4.62252   -4.358516   -4.156105 C.2        1 UNL1     0.0801
     12 C         -6.371132   -2.406447   -5.26731 C.ar        1 UNL1     0.0753
     13 C         -5.190334   -2.005841   -4.564573 C.ar        1 UNL1     0.0305
     14 C         -4.345661   -2.976458   -3.872128 C.2        1 UNL1     0.0924
     15 N         -3.525967   -5.007953   -3.729102 N.pl3        1 UNL1     -0.3170
     16 C         -2.8893   -4.187544   -2.733191 C.3        1 UNL1     0.1275
     17 N         -3.282939   -2.776906   -3.097708 N.2        1 UNL1     -0.2557
     18 C         -3.568641   -4.48569   -1.400035 C.3        1 UNL1     0.0016
     19 C         -3.480399   -5.97978   -1.132645 C.3        1 UNL1     0.0026
     20 N         -2.076944   -6.367743   -1.10387 N.3        1 UNL1     -0.3018
     21 C         -1.322883   -6.064146   -2.321897 C.3        1 UNL1     0.0026
     22 C         -1.421139   -4.557745   -2.568868 C.3        1 UNL1     0.0016
     23 C         -1.870279   -7.697105   -0.564677 C.3        1 UNL1     0.0012
     24 C         -2.687329   -8.731706   -1.35448 C.3        1 UNL1     -0.0339
     25 C         -2.800896   -10.060915   -0.590045 C.3        1 UNL1     -0.0615
     26 C         -4.054314   -8.16484   -1.696233 C.3        1 UNL1     -0.0615
     27 C         -7.235414   -1.465244   -5.82163 C.ar        1 UNL1     0.1347
     28 C         -7.045732   -0.099865   -5.704112 C.ar        1 UNL1     0.0342
     29 C         -5.851246   0.270496   -5.050506 C.ar        1 UNL1     0.1435
     30 C         -4.957651   -0.661765   -4.521735 C.ar        1 UNL1     0.0774
     31 O         -5.577625   1.561234   -4.760448 O.3        1 UNL1     -0.4436
     32 C         -4.583816   1.497759   -3.726432 C.3        1 UNL1     0.3143
     33 C         -3.932241   0.13902   -3.886091 C.2        1 UNL1     0.2504
     34 C         -8.051114   0.962976   -6.050057 C.3        1 UNL1     -0.0327
     35 O         -3.585224   2.47811   -4.034616 O.2        1 UNL1     -0.4528
     36 C         -2.176016   3.612714   -0.697717 C.3        1 UNL1     0.0854
     37 C         -1.503941   2.755823   0.443149 C.3        1 UNL1     0.0236
     38 C         -0.039286   3.241676   0.879584 C.3        1 UNL1     0.1131
     39 C         1.068882   3.483055   -0.223127 C.3        1 UNL1     0.0200
     40 C         1.268074   2.396307   -1.472823 C.3        1 UNL1     0.0661
     41 C         1.418066   0.714226   -1.312466 C.3        1 UNL1     0.0091
     42 C         0.884236   -0.639927   -2.429023 C.3        1 UNL1     0.0661
     43 C         -6.691997   -3.854741   -5.309135 C.2        1 UNL1     0.2131
     44 O         -7.810783   -4.290678   -5.511658 O.2        1 UNL1     -0.2851
     45 O         -8.338199   -1.939745   -6.528845 O.3        1 UNL1     -0.5056
     46 O         -2.811452   -0.200044   -3.578323 O.2        1 UNL1     -0.2836
     47 C         1.415274   -0.764654   -5.040584 C.3        1 UNL1     -0.0566
     48 O         2.177671   -1.361834   -2.358383 O.3        1 UNL1     -0.3909
     49 C         1.007009   0.318975   0.088356 C.3        1 UNL1     -0.0577
     50 O         0.402811   2.703992   -2.54724 O.3        1 UNL1     -0.3910
     51 O         -1.351503   4.578845   -1.309436 O.3        1 UNL1     -0.3753
     52 C         -1.878401   1.241841   0.330947 C.3        1 UNL1     -0.0564
     53 O         0.427548   2.6506   2.177668 O.3        1 UNL1     -0.4608
     54 C         1.692264   2.762892   2.693239 C.2        1 UNL1     0.3042
     55 O         2.636152   1.990449   2.531236 O.2        1 UNL1     -0.2512
     56 C         1.907101   4.017195   3.491539 C.3        1 UNL1     0.0332
     57 C         1.058017   5.041004   -0.584861 C.3        1 UNL1     -0.0567
     58 C         -5.348242   1.52963   -2.382495 C.3        1 UNL1     0.0210
     59 C         -1.992462   5.822094   -1.591159 C.3        1 UNL1     0.0372
     60 C         -2.797416   2.821999   -1.794891 C.2        1 UNL1     -0.0208
     61 C         -2.738274   2.983542   -3.117446 C.2        1 UNL1     0.0882
     62 H         -0.497055   -0.639235   -4.085815 H        1 UNL1     0.0365
     63 H         -1.611556   -1.959473   -5.174433 H        1 UNL1     0.0576
     64 H         -0.158098   -4.660254   -5.47446 H        1 UNL1     0.0615
     65 H         -2.990148   -3.66205   -6.33524 H        1 UNL1     0.0622
     66 H         -3.003006   4.136933   -0.198389 H        1 UNL1     0.0645
     67 H         -2.093506   2.999439   1.344051 H        1 UNL1     0.0362
     68 H         -0.285577   4.241129   1.269401 H        1 UNL1     0.0741
     69 H         2.040412   3.477787   0.252803 H        1 UNL1     0.0359
     70 H         2.2711   2.698434   -1.830201 H        1 UNL1     0.0600
     71 H         2.520207   0.623634   -1.248941 H        1 UNL1     0.0348
     72 H         0.917552   0.268284   -3.048182 H        1 UNL1     0.0602
     73 H         -3.460036   2.105409   -1.376941 H        1 UNL1     0.0628
     74 H         -2.044914   3.653959   -3.626396 H        1 UNL1     0.1022
     75 H         -1.958366   -7.476576   -7.419476 H        1 UNL1     0.0279
     76 H         -2.603254   -7.829729   -5.866189 H        1 UNL1     0.0279
     77 H         -3.654869   -7.712301   -7.33439 H        1 UNL1     0.0279
     78 H         -4.845039   -6.555583   -5.023905 H        1 UNL1     0.1553
     79 H         -3.422565   -6.005628   -3.758859 H        1 UNL1     0.1484
     80 H         -3.074609   -3.907521   -0.609833 H        1 UNL1     0.0317
     81 H         -4.616031   -4.165661   -1.414386 H        1 UNL1     0.0317
     82 H         -4.036479   -6.561166   -1.882763 H        1 UNL1     0.0428
     83 H         -3.972328   -6.170542   -0.178357 H        1 UNL1     0.0428
     84 H         -0.2552   -6.292101   -2.245073 H        1 UNL1     0.0428
     85 H         -1.663779   -6.667293   -3.174728 H        1 UNL1     0.0428
     86 H         -0.753187   -4.353985   -3.385145 H        1 UNL1     0.0317
     87 H         -0.972192   -4.010583   -1.730919 H        1 UNL1     0.0317
     88 H         -0.805073   -7.943881   -0.663329 H        1 UNL1     0.0429
     89 H         -2.111497   -7.735322   0.505429 H        1 UNL1     0.0429
     90 H         -2.193483   -8.922218   -2.314706 H        1 UNL1     0.0308
     91 H         -3.057893   -10.88538   -1.261843 H        1 UNL1     0.0233
     92 H         -1.863924   -10.293722   -0.07868 H        1 UNL1     0.0233
     93 H         -3.574162   -10.030974   0.187129 H        1 UNL1     0.0233
     94 H         -4.830314   -8.917343   -1.519032 H        1 UNL1     0.0233
     95 H         -4.270399   -7.3016   -1.060556 H        1 UNL1     0.0233
     96 H         -4.107007   -7.854079   -2.743429 H        1 UNL1     0.0233
     97 H         -7.994828   1.252368   -7.095195 H        1 UNL1     0.0280
     98 H         -9.08294   0.625411   -5.88684 H        1 UNL1     0.0280
     99 H         -7.868766   1.858219   -5.433304 H        1 UNL1     0.0280
     100 H         -8.397817   -1.629604   -7.415344 H        1 UNL1     0.2922
     101 H         0.931579   -0.18276   -5.824864 H        1 UNL1     0.0236
     102 H         2.08292   -1.523575   -5.44712 H        1 UNL1     0.0236
     103 H         2.081199   -0.048389   -4.530977 H        1 UNL1     0.0236
     104 H         2.225046   -1.958439   -3.130904 H        1 UNL1     0.2098
     105 H         1.580569   -0.502805   0.509684 H        1 UNL1     0.0234
     106 H         0.953631   1.144998   0.797414 H        1 UNL1     0.0234
     107 H         -0.0   0.0   0.0 H        1 UNL1     0.0234
     108 H         0.351441   1.910788   -3.114651 H        1 UNL1     0.2098
     109 H         -1.496122   0.786157   -0.593134 H        1 UNL1     0.0234
     110 H         -1.549735   0.652118   1.193472 H        1 UNL1     0.0234
     111 H         -2.966392   1.094725   0.306891 H        1 UNL1     0.0234
     112 H         2.866905   4.469139   3.223459 H        1 UNL1     0.0342
     113 H         1.091727   4.727838   3.365068 H        1 UNL1     0.0342
     114 H         1.948745   3.744158   4.554968 H        1 UNL1     0.0342
     115 H         0.384866   5.608245   0.072628 H        1 UNL1     0.0234
     116 H         2.040459   5.514839   -0.536527 H        1 UNL1     0.0234
     117 H         0.622808   5.259657   -1.575177 H        1 UNL1     0.0234
     118 H         -6.134034   0.755558   -2.33402 H        1 UNL1     0.0309
     119 H         -4.691832   1.428611   -1.512367 H        1 UNL1     0.0309
     120 H         -5.903505   2.462662   -2.236757 H        1 UNL1     0.0309
     121 H         -1.262702   6.465493   -2.081918 H        1 UNL1     0.0524
     122 H         -2.847446   5.705849   -2.277838 H        1 UNL1     0.0524
     123 H         -2.339593   6.283043   -0.670768 H        1 UNL1     0.0524
@<TRIPOS>BOND
     1     1     2    1
     2     1    42    1
     3     2     3    2
     4     3     4    1
     5     4     5    2
     6     5     7    1
     7     6    75    1
     8     6    76    1
     9     6    77    1
    10     7     9   am
    11     9    10    1
    12    10    11    2
    13    10    43    1
    14    11    14    1
    15    11    15    1
    16    12    13   ar
    17    12    27   ar
    18    12    43    1
    19    13    14    1
    20    13    30   ar
    21    14    17    2
    22    15    16    1
    23    16    17    1
    24    16    18    1
    25    16    22    1
    26    18    19    1
    27    19    20    1
    28    20    21    1
    29    21    22    1
    30    23    24    1
    31    23    88    1
    32    23    89    1
    33    24    25    1
    34    24    26    1
    35    24    90    1
    36    25    91    1
    37    25    92    1
    38    25    93    1
    39    26    94    1
    40    26    95    1
    41    26    96    1
    42    27    28   ar
    43    28    29   ar
    44    29    30   ar
    45    29    31    1
    46    30    33    1
    47    31    32    1
    48    32    33    1
    49    32    35    1
    50    34    97    1
    51    34    98    1
    52    34    99    1
    53    35    61    1
    54    36    37    1
    55    36    60    1
    56    37    38    1
    57    38    39    1
    58    39    40    1
    59    40    41    1
    60    41    42    1
    61    45   100    1
    62    47   101    1
    63    47   102    1
    64    47   103    1
    65    48   104    1
    66    49   105    1
    67    49   106    1
    68    49   107    1
    69    50   108    1
    70    51    59    1
    71    52   109    1
    72    52   110    1
    73    52   111    1
    74    53    54    1
    75    54    55    2
    76    54    56    1
    77    56   112    1
    78    56   113    1
    79    56   114    1
    80    57   115    1
    81    57   116    1
    82    57   117    1
    83    58   118    1
    84    58   119    1
    85    58   120    1
    86    59   121    1
    87    59   122    1
    88    59   123    1
    89    60    61    2
    90     1    47    1
    91     1    62    1
    92     2    63    1
    93     3    64    1
    94     4    65    1
    95     5     6    1
    96     7     8    2
    97     9    78    1
    98    15    79    1
    99    18    80    1
   100    18    81    1
   101    19    82    1
   102    19    83    1
   103    20    23    1
   104    21    84    1
   105    21    85    1
   106    22    86    1
   107    22    87    1
   108    27    45    1
   109    28    34    1
   110    32    58    1
   111    33    46    2
   112    36    51    1
   113    36    66    1
   114    37    52    1
   115    37    67    1
   116    38    53    1
   117    38    68    1
   118    42    48    1
   119    42    72    1
   120    43    44    2
   121    60    73    1
   122    61    74    1
   123    39    69    1
   124    39    57    1
   125    40    70    1
   126    40    50    1
   127    41    71    1
   128    41    49    1
