@<TRIPOS>MOLECULE
*****
 123 128 0 0 0
SMALL
GASTEIGER

@<TRIPOS>ATOM
     1 C         2.476969   0.494853   -4.358438 C.3        1 UNL1     0.0009
     2 C         2.466206   1.675543   -5.787736 C.2        1 UNL1     -0.0787
     3 C         2.236506   1.94672   -7.191213 C.2        1 UNL1     -0.0649
     4 C         2.296768   3.440448   -7.985883 C.2        1 UNL1     -0.0542
     5 C         1.891921   4.160375   -9.136918 C.2        1 UNL1     0.0115
     6 C         1.245215   4.022065   -10.542609 C.3        1 UNL1     -0.0348
     7 C         1.93611   5.764753   -9.105158 C.2        1 UNL1     0.2441
     8 O         2.822274   6.416739   -9.64009 O.2        1 UNL1     -0.2702
     9 N         0.755964   6.377545   -8.649206 N.am        1 UNL1     -0.2772
     10 C         0.782915   6.512355   -7.280111 C.2        1 UNL1     0.1049
     11 C         0.422626   5.449789   -6.583428 C.2        1 UNL1     0.0801
     12 C         2.218478   7.310366   -5.393402 C.ar        1 UNL1     0.0753
     13 C         1.963428   6.047992   -4.768925 C.ar        1 UNL1     0.0305
     14 C         0.950505   5.1299   -5.284817 C.2        1 UNL1     0.0924
     15 N         -0.170239   4.312876   -6.986501 N.pl3        1 UNL1     -0.3170
     16 C         -0.502931   3.550632   -5.812383 C.3        1 UNL1     0.1275
     17 N         0.515858   3.977072   -4.783821 N.2        1 UNL1     -0.2557
     18 C         -1.850615   4.05944   -5.309825 C.3        1 UNL1     0.0016
     19 C         -2.863707   3.948739   -6.43809 C.3        1 UNL1     0.0026
     20 N         -2.951305   2.55549   -6.853072 N.3        1 UNL1     -0.3018
     21 C         -1.689693   1.958074   -7.295562 C.3        1 UNL1     0.0026
     22 C         -0.688192   2.076063   -6.145358 C.3        1 UNL1     0.0016
     23 C         -4.092455   2.292067   -7.706905 C.3        1 UNL1     0.0012
     24 C         -3.993993   0.88584   -8.31894 C.3        1 UNL1     -0.0339
     25 C         -3.431518   -0.128611   -7.309699 C.3        1 UNL1     -0.0615
     26 C         -5.349432   0.453018   -8.850194 C.3        1 UNL1     -0.0615
     27 C         3.097757   8.230791   -4.827891 C.ar        1 UNL1     0.1347
     28 C         3.747521   8.018383   -3.625085 C.ar        1 UNL1     0.0342
     29 C         3.518961   6.748802   -3.053167 C.ar        1 UNL1     0.1435
     30 C         2.668901   5.80244   -3.626766 C.ar        1 UNL1     0.0774
     31 O         3.99265   6.431997   -1.828317 O.3        1 UNL1     -0.4436
     32 C         3.192632   5.316803   -1.407382 C.3        1 UNL1     0.3143
     33 C         2.667912   4.699858   -2.688109 C.2        1 UNL1     0.2504
     34 C         4.502403   9.051807   -2.836234 C.3        1 UNL1     -0.0327
     35 O         4.076946   4.357966   -0.814194 O.2        1 UNL1     -0.4528
     36 C         2.026247   2.533479   1.807631 C.3        1 UNL1     0.0854
     37 C         0.68   1.72958   1.63766 C.3        1 UNL1     0.0236
     38 C         0.723041   0.218408   2.172686 C.3        1 UNL1     0.1131
     39 C         1.890901   -0.74434   1.712808 C.3        1 UNL1     0.0200
     40 C         2.379978   -0.777649   0.118402 C.3        1 UNL1     0.0661
     41 C         1.362676   -0.934879   -1.229925 C.3        1 UNL1     0.0091
     42 C         1.52219   -0.255814   -2.926636 C.3        1 UNL1     0.0661
     43 C         1.447485   7.643999   -6.616725 C.2        1 UNL1     0.2131
     44 O         1.270177   8.782354   -7.010994 O.2        1 UNL1     -0.2851
     45 O         3.3251   9.416845   -5.522895 O.3        1 UNL1     -0.5056
     46 O         2.343315   3.551699   -2.893591 O.2        1 UNL1     -0.2836
     47 C         3.701915   -0.454201   -4.452171 C.3        1 UNL1     -0.0566
     48 O         1.209895   -1.542847   -3.59382 O.3        1 UNL1     -0.3909
     49 C         -0.066179   -0.700042   -0.79321 C.3        1 UNL1     -0.0577
     50 O         3.357451   0.213389   -0.126778 O.3        1 UNL1     -0.3910
     51 O         3.139912   1.785514   2.24091 O.3        1 UNL1     -0.3753
     52 C         -0.072482   2.125668   0.325473 C.3        1 UNL1     -0.0564
     53 O         -0.634256   -0.403442   2.325571 O.3        1 UNL1     -0.4608
     54 C         -1.513861   -0.151668   3.345784 C.2        1 UNL1     0.3042
     55 O         -1.870137   -0.926158   4.232954 O.2        1 UNL1     -0.2512
     56 C         -2.025303   1.260708   3.364082 C.3        1 UNL1     0.0332
     57 C         3.025194   -0.699014   2.839529 C.3        1 UNL1     -0.0567
     58 C         2.003386   5.906376   -0.613892 C.3        1 UNL1     0.0210
     59 C         4.382342   2.48631   2.207483 C.3        1 UNL1     0.0372
     60 C         2.461349   3.293073   0.603943 C.2        1 UNL1     -0.0208
     61 C         3.663705   3.399169   0.036645 C.2        1 UNL1     0.0882
     62 H         2.771729   1.322347   -3.70187 H        1 UNL1     0.0365
     63 H         2.866452   2.573741   -5.312853 H        1 UNL1     0.0576
     64 H         1.825124   1.188198   -7.860928 H        1 UNL1     0.0615
     65 H         2.790596   4.098846   -7.266071 H        1 UNL1     0.0622
     66 H         1.802363   3.287642   2.575199 H        1 UNL1     0.0645
     67 H         -0.006442   2.199778   2.363105 H        1 UNL1     0.0362
     68 H         0.904252   0.406908   3.241869 H        1 UNL1     0.0741
     69 H         1.588094   -1.767835   1.889374 H        1 UNL1     0.0359
     70 H         2.94393   -1.730001   0.111794 H        1 UNL1     0.0600
     71 H         1.373828   -2.035627   -1.353157 H        1 UNL1     0.0348
     72 H         2.530173   -0.217514   -2.488664 H        1 UNL1     0.0602
     73 H         1.660125   3.902998   0.267373 H        1 UNL1     0.0628
     74 H         4.519804   2.770483   0.283802 H        1 UNL1     0.1022
     75 H         2.001605   4.210093   -11.34233 H        1 UNL1     0.0279
     76 H         0.864633   3.037985   -10.806832 H        1 UNL1     0.0279
     77 H         0.508323   4.811471   -10.751243 H        1 UNL1     0.0279
     78 H         -0.044809   5.794664   -8.883919 H        1 UNL1     0.1553
     79 H         -0.667338   4.220958   -7.853321 H        1 UNL1     0.1484
     80 H         -2.154587   3.466186   -4.438954 H        1 UNL1     0.0317
     81 H         -1.774938   5.098109   -4.970574 H        1 UNL1     0.0317
     82 H         -2.601449   4.598544   -7.285962 H        1 UNL1     0.0428
     83 H         -3.816876   4.318398   -6.058787 H        1 UNL1     0.0428
     84 H         -1.766569   0.890797   -7.525394 H        1 UNL1     0.0428
     85 H         -1.330814   2.407435   -8.23183 H        1 UNL1     0.0428
     86 H         0.174103   1.514375   -6.453482 H        1 UNL1     0.0317
     87 H         -1.053409   1.521763   -5.272165 H        1 UNL1     0.0317
     88 H         -4.999283   2.342057   -7.090092 H        1 UNL1     0.0429
     89 H         -4.191708   3.057519   -8.487293 H        1 UNL1     0.0429
     90 H         -3.327785   0.918702   -9.18917 H        1 UNL1     0.0308
     91 H         -2.355063   -0.269687   -7.445511 H        1 UNL1     0.0233
     92 H         -3.623916   0.198471   -6.285194 H        1 UNL1     0.0233
     93 H         -3.896742   -1.116949   -7.407619 H        1 UNL1     0.0233
     94 H         -6.004551   0.16245   -8.021806 H        1 UNL1     0.0233
     95 H         -5.824923   1.282523   -9.381033 H        1 UNL1     0.0233
     96 H         -5.257791   -0.396571   -9.532666 H        1 UNL1     0.0233
     97 H         3.887376   9.9159   -2.603176 H        1 UNL1     0.0280
     98 H         4.851333   8.662146   -1.871004 H        1 UNL1     0.0280
     99 H         5.374449   9.394794   -3.416743 H        1 UNL1     0.0280
     100 H         2.565897   9.963932   -5.62254 H        1 UNL1     0.2922
     101 H         3.714149   -0.943656   -5.425793 H        1 UNL1     0.0236
     102 H         3.752363   -1.171115   -3.633347 H        1 UNL1     0.0236
     103 H         4.656573   0.095745   -4.40339 H        1 UNL1     0.0236
     104 H         2.024734   -2.082286   -3.590211 H        1 UNL1     0.2098
     105 H         -0.706135   -0.273042   -1.561285 H        1 UNL1     0.0234
     106 H         -0.549905   -1.562587   -0.335005 H        1 UNL1     0.0234
     107 H         0.0   0.0   0.0 H        1 UNL1     0.0234
     108 H         3.214058   0.543994   -1.034471 H        1 UNL1     0.2098
     109 H         -0.33591   3.192347   0.302833 H        1 UNL1     0.0234
     110 H         0.480931   1.865549   -0.583271 H        1 UNL1     0.0234
     111 H         -1.021664   1.582866   0.223663 H        1 UNL1     0.0234
     112 H         -1.200313   1.95757   3.18767 H        1 UNL1     0.0342
     113 H         -2.82779   1.415037   2.644332 H        1 UNL1     0.0342
     114 H         -2.43125   1.465676   4.364262 H        1 UNL1     0.0342
     115 H         3.016369   -1.602624   3.464508 H        1 UNL1     0.0234
     116 H         4.036978   -0.581534   2.446413 H        1 UNL1     0.0234
     117 H         2.861093   0.086033   3.597628 H        1 UNL1     0.0234
     118 H         1.133848   6.112543   -1.262279 H        1 UNL1     0.0309
     119 H         1.686151   5.271643   0.219581 H        1 UNL1     0.0309
     120 H         2.232192   6.885607   -0.179311 H        1 UNL1     0.0309
     121 H         4.529656   2.847875   1.19017 H        1 UNL1     0.0524
     122 H         4.385858   3.363743   2.875418 H        1 UNL1     0.0524
     123 H         5.195236   1.823914   2.49126 H        1 UNL1     0.0524
@<TRIPOS>BOND
     1     1     2    1
     2     1    42    1
     3     2     3    2
     4     3     4    1
     5     4     5    2
     6     5     7    1
     7     6    75    1
     8     6    76    1
     9     6    77    1
    10     7     9   am
    11     9    10    1
    12    10    11    2
    13    10    43    1
    14    11    14    1
    15    11    15    1
    16    12    13   ar
    17    12    27   ar
    18    12    43    1
    19    13    14    1
    20    13    30   ar
    21    14    17    2
    22    15    16    1
    23    16    17    1
    24    16    18    1
    25    16    22    1
    26    18    19    1
    27    19    20    1
    28    20    21    1
    29    21    22    1
    30    23    24    1
    31    23    88    1
    32    23    89    1
    33    24    25    1
    34    24    26    1
    35    24    90    1
    36    25    91    1
    37    25    92    1
    38    25    93    1
    39    26    94    1
    40    26    95    1
    41    26    96    1
    42    27    28   ar
    43    28    29   ar
    44    29    30   ar
    45    29    31    1
    46    30    33    1
    47    31    32    1
    48    32    33    1
    49    32    35    1
    50    34    97    1
    51    34    98    1
    52    34    99    1
    53    35    61    1
    54    36    37    1
    55    36    60    1
    56    37    38    1
    57    38    39    1
    58    39    40    1
    59    40    41    1
    60    41    42    1
    61    45   100    1
    62    47   101    1
    63    47   102    1
    64    47   103    1
    65    48   104    1
    66    49   105    1
    67    49   106    1
    68    49   107    1
    69    50   108    1
    70    51    59    1
    71    52   109    1
    72    52   110    1
    73    52   111    1
    74    53    54    1
    75    54    55    2
    76    54    56    1
    77    56   112    1
    78    56   113    1
    79    56   114    1
    80    57   115    1
    81    57   116    1
    82    57   117    1
    83    58   118    1
    84    58   119    1
    85    58   120    1
    86    59   121    1
    87    59   122    1
    88    59   123    1
    89    60    61    2
    90     1    47    1
    91     1    62    1
    92     2    63    1
    93     3    64    1
    94     4    65    1
    95     5     6    1
    96     7     8    2
    97     9    78    1
    98    15    79    1
    99    18    80    1
   100    18    81    1
   101    19    82    1
   102    19    83    1
   103    20    23    1
   104    21    84    1
   105    21    85    1
   106    22    86    1
   107    22    87    1
   108    27    45    1
   109    28    34    1
   110    32    58    1
   111    33    46    2
   112    36    51    1
   113    36    66    1
   114    37    52    1
   115    37    67    1
   116    38    53    1
   117    38    68    1
   118    42    48    1
   119    42    72    1
   120    43    44    2
   121    60    73    1
   122    61    74    1
   123    39    69    1
   124    39    57    1
   125    40    70    1
   126    40    50    1
   127    41    71    1
   128    41    49    1
