@<TRIPOS>MOLECULE
*****
 123 128 0 0 0
SMALL
GASTEIGER

@<TRIPOS>ATOM
     1 C         5.114822   1.906571   0.464043 C.3        1 UNL1     0.0009
     2 C         6.503755   2.794955   -0.383706 C.2        1 UNL1     -0.0787
     3 C         7.778748   2.76875   -1.06909 C.2        1 UNL1     -0.0649
     4 C         8.592348   4.059405   -1.802999 C.2        1 UNL1     -0.0542
     5 C         9.585326   4.419611   -2.747099 C.2        1 UNL1     0.0115
     6 C         10.72603   3.865541   -3.644385 C.3        1 UNL1     -0.0348
     7 C         9.609343   5.921002   -3.31476 C.2        1 UNL1     0.2441
     8 O         10.403397   6.766644   -2.926309 O.2        1 UNL1     -0.2702
     9 N         8.834032   6.126656   -4.469209 N.am        1 UNL1     -0.2772
     10 C         7.540925   6.450209   -4.127874 C.2        1 UNL1     0.1049
     11 C         6.741085   5.436464   -3.850748 C.2        1 UNL1     0.0801
     12 C         6.196926   7.962722   -2.657057 C.ar        1 UNL1     0.0753
     13 C         5.492583   6.79226   -2.229824 C.ar        1 UNL1     0.0305
     14 C         5.654842   5.510104   -2.911585 C.2        1 UNL1     0.0924
     15 N         6.917122   4.118522   -4.047134 N.pl3        1 UNL1     -0.3170
     16 C         5.678306   3.457986   -3.732044 C.3        1 UNL1     0.1275
     17 N         5.016722   4.359291   -2.718298 N.2        1 UNL1     -0.2557
     18 C         4.805327   3.514018   -4.982032 C.3        1 UNL1     0.0016
     19 C         5.571701   2.89245   -6.138714 C.3        1 UNL1     0.0026
     20 N         5.905153   1.517382   -5.793712 N.3        1 UNL1     -0.3018
     21 C         6.692632   1.356997   -4.569571 C.3        1 UNL1     0.0026
     22 C         5.902036   1.984173   -3.420004 C.3        1 UNL1     0.0016
     23 C         6.367431   0.746876   -6.930929 C.3        1 UNL1     0.0012
     24 C         5.209246   0.474513   -7.903649 C.3        1 UNL1     -0.0339
     25 C         5.525875   0.99575   -9.315072 C.3        1 UNL1     -0.0615
     26 C         4.877504   -1.007567   -7.916449 C.3        1 UNL1     -0.0615
     27 C         5.947076   9.205979   -2.080856 C.ar        1 UNL1     0.1347
     28 C         4.991687   9.409292   -1.101088 C.ar        1 UNL1     0.0342
     29 C         4.345247   8.234402   -0.661867 C.ar        1 UNL1     0.1435
     30 C         4.610968   6.976559   -1.204493 C.ar        1 UNL1     0.0774
     31 O         3.313005   8.281253   0.208356 O.3        1 UNL1     -0.4436
     32 C         2.641786   7.023096   0.042889 C.3        1 UNL1     0.3143
     33 C         3.688037   6.088184   -0.529398 C.2        1 UNL1     0.2504
     34 C         4.494315   10.743166   -0.617868 C.3        1 UNL1     -0.0327
     35 O         2.319132   6.537064   1.351674 O.2        1 UNL1     -0.4528
     36 C         -0.845285   4.480166   0.947044 C.3        1 UNL1     0.0854
     37 C         -1.110434   3.231777   0.020359 C.3        1 UNL1     0.0236
     38 C         -1.645849   1.926134   0.782181 C.3        1 UNL1     0.1131
     39 C         -0.879438   1.392454   2.058922 C.3        1 UNL1     0.0200
     40 C         0.786829   1.316461   2.073704 C.3        1 UNL1     0.0661
     41 C         1.760453   0.619979   0.871798 C.3        1 UNL1     0.0091
     42 C         3.442849   1.06932   0.294702 C.3        1 UNL1     0.0661
     43 C         7.138345   7.825016   -3.795928 C.2        1 UNL1     0.2131
     44 O         7.489559   8.757809   -4.495416 O.2        1 UNL1     -0.2851
     45 O         6.708312   10.286289   -2.522316 O.3        1 UNL1     -0.5056
     46 O         3.756517   4.883391   -0.431224 O.2        1 UNL1     -0.2836
     47 C         5.549904   1.456664   1.884701 C.3        1 UNL1     -0.0566
     48 O         3.951482   -0.323153   0.332484 O.3        1 UNL1     -0.3909
     49 C         0.918712   0.384868   -0.362581 C.3        1 UNL1     -0.0577
     50 O         1.340991   2.547945   2.490927 O.3        1 UNL1     -0.3910
     51 O         -0.940901   4.248921   2.334421 O.3        1 UNL1     -0.3753
     52 C         -0.077147   3.14607   -1.150077 C.3        1 UNL1     -0.0564
     53 O         -2.217358   0.88652   -0.137007 O.3        1 UNL1     -0.4608
     54 C         -2.360283   -0.44397   0.158456 C.2        1 UNL1     0.3042
     55 O         -1.651003   -1.37414   -0.223048 O.2        1 UNL1     -0.2512
     56 C         -3.493264   -0.732184   1.101854 C.3        1 UNL1     0.0332
     57 C         -1.609401   1.996914   3.347315 C.3        1 UNL1     -0.0567
     58 C         1.541476   7.250755   -1.019665 C.3        1 UNL1     0.0210
     59 C         -1.292508   5.393741   3.110066 C.3        1 UNL1     0.0372
     60 C         0.452573   5.170884   0.715453 C.2        1 UNL1     -0.0208
     61 C         1.359042   5.621461   1.583807 C.2        1 UNL1     0.0882
     62 H         4.599283   2.867044   0.584137 H        1 UNL1     0.0365
     63 H         6.195019   3.833386   -0.246549 H        1 UNL1     0.0576
     64 H         8.273351   1.828317   -1.322191 H        1 UNL1     0.0615
     65 H         8.072351   4.943899   -1.425168 H        1 UNL1     0.0622
     66 H         -1.62512   5.202332   0.66708 H        1 UNL1     0.0645
     67 H         -1.997083   3.520103   -0.570642 H        1 UNL1     0.0362
     68 H         -2.605191   2.313068   1.158301 H        1 UNL1     0.0741
     69 H         -1.16527   0.363424   2.23157 H        1 UNL1     0.0359
     70 H         0.939158   0.638555   2.935272 H        1 UNL1     0.0600
     71 H         1.853169   -0.409277   1.270537 H        1 UNL1     0.0348
     72 H         3.330903   1.526705   1.288474 H        1 UNL1     0.0602
     73 H         0.546875   5.400103   -0.316929 H        1 UNL1     0.0628
     74 H         1.366042   5.382226   2.647741 H        1 UNL1     0.1022
     75 H         10.767439   2.751324   -3.582424 H        1 UNL1     0.0279
     76 H         10.628724   4.037225   -4.714023 H        1 UNL1     0.0279
     77 H         11.726277   4.140329   -3.278738 H        1 UNL1     0.0279
     78 H         8.800971   5.268939   -5.016297 H        1 UNL1     0.1553
     79 H         7.590677   3.735484   -4.684739 H        1 UNL1     0.1484
     80 H         3.868478   2.977834   -4.78816 H        1 UNL1     0.0317
     81 H         4.531396   4.546986   -5.222011 H        1 UNL1     0.0317
     82 H         6.475476   3.469067   -6.384915 H        1 UNL1     0.0428
     83 H         4.931785   2.944425   -7.020109 H        1 UNL1     0.0428
     84 H         6.861201   0.312329   -4.29017 H        1 UNL1     0.0428
     85 H         7.704714   1.77098   -4.677398 H        1 UNL1     0.0428
     86 H         6.441776   1.732182   -2.526041 H        1 UNL1     0.0317
     87 H         4.945471   1.462312   -3.294542 H        1 UNL1     0.0317
     88 H         7.132206   1.3356   -7.454206 H        1 UNL1     0.0429
     89 H         6.844492   -0.188587   -6.611406 H        1 UNL1     0.0429
     90 H         4.307342   0.980184   -7.538847 H        1 UNL1     0.0308
     91 H         6.535108   0.710864   -9.627145 H        1 UNL1     0.0233
     92 H         4.804417   0.61114   -10.039767 H        1 UNL1     0.0233
     93 H         5.469969   2.08921   -9.378744 H        1 UNL1     0.0233
     94 H         4.356908   -1.27009   -8.843755 H        1 UNL1     0.0233
     95 H         5.797503   -1.59681   -7.867914 H        1 UNL1     0.0233
     96 H         4.238401   -1.28074   -7.072119 H        1 UNL1     0.0233
     97 H         3.659196   10.64221   0.068874 H        1 UNL1     0.0280
     98 H         5.266991   11.299811   -0.071633 H        1 UNL1     0.0280
     99 H         4.163045   11.347295   -1.478323 H        1 UNL1     0.0280
     100 H         6.208591   11.051002   -2.748404 H        1 UNL1     0.2922
     101 H         4.686716   1.07596   2.430253 H        1 UNL1     0.0236
     102 H         6.073517   2.234738   2.43915 H        1 UNL1     0.0236
     103 H         6.256355   0.610432   1.852894 H        1 UNL1     0.0236
     104 H         4.302257   -0.484785   1.230149 H        1 UNL1     0.2098
     105 H         0.700458   1.282883   -0.935071 H        1 UNL1     0.0234
     106 H         1.285468   -0.402806   -1.020599 H        1 UNL1     0.0234
     107 H         0.0   -0.0   0.0 H        1 UNL1     0.0234
     108 H         1.159043   3.200956   1.787905 H        1 UNL1     0.2098
     109 H         0.957934   3.078668   -0.787066 H        1 UNL1     0.0234
     110 H         -0.277466   2.320467   -1.841448 H        1 UNL1     0.0234
     111 H         -0.111317   4.040412   -1.786419 H        1 UNL1     0.0234
     112 H         -3.53888   -1.805098   1.3119 H        1 UNL1     0.0342
     113 H         -3.41563   -0.156671   2.02305 H        1 UNL1     0.0342
     114 H         -4.432073   -0.44542   0.608328 H        1 UNL1     0.0342
     115 H         -2.690651   1.802281   3.333022 H        1 UNL1     0.0234
     116 H         -1.220482   1.620328   4.295458 H        1 UNL1     0.0234
     117 H         -1.591884   3.099701   3.385972 H        1 UNL1     0.0234
     118 H         0.533972   7.295168   -0.570256 H        1 UNL1     0.0309
     119 H         1.705083   8.150224   -1.621654 H        1 UNL1     0.0309
     120 H         1.464795   6.420287   -1.72998 H        1 UNL1     0.0309
     121 H         -0.899675   5.24417   4.115385 H        1 UNL1     0.0524
     122 H         -0.84598   6.320858   2.713702 H        1 UNL1     0.0524
     123 H         -2.372267   5.508397   3.142767 H        1 UNL1     0.0524
@<TRIPOS>BOND
     1     1     2    1
     2     1    42    1
     3     2     3    2
     4     3     4    1
     5     4     5    2
     6     5     7    1
     7     6    75    1
     8     6    76    1
     9     6    77    1
    10     7     9   am
    11     9    10    1
    12    10    11    2
    13    10    43    1
    14    11    14    1
    15    11    15    1
    16    12    13   ar
    17    12    27   ar
    18    12    43    1
    19    13    14    1
    20    13    30   ar
    21    14    17    2
    22    15    16    1
    23    16    17    1
    24    16    18    1
    25    16    22    1
    26    18    19    1
    27    19    20    1
    28    20    21    1
    29    21    22    1
    30    23    24    1
    31    23    88    1
    32    23    89    1
    33    24    25    1
    34    24    26    1
    35    24    90    1
    36    25    91    1
    37    25    92    1
    38    25    93    1
    39    26    94    1
    40    26    95    1
    41    26    96    1
    42    27    28   ar
    43    28    29   ar
    44    29    30   ar
    45    29    31    1
    46    30    33    1
    47    31    32    1
    48    32    33    1
    49    32    35    1
    50    34    97    1
    51    34    98    1
    52    34    99    1
    53    35    61    1
    54    36    37    1
    55    36    60    1
    56    37    38    1
    57    38    39    1
    58    39    40    1
    59    40    41    1
    60    41    42    1
    61    45   100    1
    62    47   101    1
    63    47   102    1
    64    47   103    1
    65    48   104    1
    66    49   105    1
    67    49   106    1
    68    49   107    1
    69    50   108    1
    70    51    59    1
    71    52   109    1
    72    52   110    1
    73    52   111    1
    74    53    54    1
    75    54    55    2
    76    54    56    1
    77    56   112    1
    78    56   113    1
    79    56   114    1
    80    57   115    1
    81    57   116    1
    82    57   117    1
    83    58   118    1
    84    58   119    1
    85    58   120    1
    86    59   121    1
    87    59   122    1
    88    59   123    1
    89    60    61    2
    90     1    47    1
    91     1    62    1
    92     2    63    1
    93     3    64    1
    94     4    65    1
    95     5     6    1
    96     7     8    2
    97     9    78    1
    98    15    79    1
    99    18    80    1
   100    18    81    1
   101    19    82    1
   102    19    83    1
   103    20    23    1
   104    21    84    1
   105    21    85    1
   106    22    86    1
   107    22    87    1
   108    27    45    1
   109    28    34    1
   110    32    58    1
   111    33    46    2
   112    36    51    1
   113    36    66    1
   114    37    52    1
   115    37    67    1
   116    38    53    1
   117    38    68    1
   118    42    48    1
   119    42    72    1
   120    43    44    2
   121    60    73    1
   122    61    74    1
   123    39    69    1
   124    39    57    1
   125    40    70    1
   126    40    50    1
   127    41    71    1
   128    41    49    1
