@<TRIPOS>MOLECULE
*****
 123 128 0 0 0
SMALL
GASTEIGER

@<TRIPOS>ATOM
     1 C         -0.523123   4.079445   -0.526531 C.3        1 UNL1     0.0009
     2 C         -2.066647   4.95442   -1.064109 C.2        1 UNL1     -0.0787
     3 C         -2.852831   5.593512   -2.098286 C.2        1 UNL1     -0.0649
     4 C         -4.439833   6.173272   -1.990304 C.2        1 UNL1     -0.0542
     5 C         -5.592751   6.544687   -2.725089 C.2        1 UNL1     0.0115
     6 C         -6.136093   6.826501   -4.152914 C.3        1 UNL1     -0.0348
     7 C         -7.002804   6.637706   -1.963456 C.2        1 UNL1     0.2441
     8 O         -7.507049   7.699368   -1.62414 O.2        1 UNL1     -0.2702
     9 N         -7.741938   5.442101   -1.944448 N.am        1 UNL1     -0.2772
     10 C         -7.389738   4.67706   -0.856335 C.2        1 UNL1     0.1049
     11 C         -6.309355   3.930241   -0.995095 C.2        1 UNL1     0.0801
     12 C         -7.0412   4.789414   1.618182 C.ar        1 UNL1     0.0753
     13 C         -5.775886   4.160664   1.389576 C.ar        1 UNL1     0.0305
     14 C         -5.427745   3.592236   0.089291 C.2        1 UNL1     0.0924
     15 N         -5.604108   3.627932   -2.098618 N.pl3        1 UNL1     -0.3170
     16 C         -4.621942   2.641048   -1.735761 C.3        1 UNL1     0.1275
     17 N         -4.354944   2.894059   -0.27206 N.2        1 UNL1     -0.2557
     18 C         -5.301485   1.277228   -1.812703 C.3        1 UNL1     0.0016
     19 C         -5.882827   1.101478   -3.206526 C.3        1 UNL1     0.0026
     20 N         -4.804285   1.205124   -4.179682 N.3        1 UNL1     -0.3018
     21 C         -4.050419   2.459937   -4.140968 C.3        1 UNL1     0.0026
     22 C         -3.471543   2.613888   -2.733454 C.3        1 UNL1     0.0016
     23 C         -5.193555   0.758977   -5.502582 C.3        1 UNL1     0.0012
     24 C         -5.886771   1.894614   -6.271696 C.3        1 UNL1     -0.0339
     25 C         -6.986942   1.355067   -7.200442 C.3        1 UNL1     -0.0615
     26 C         -6.432415   2.925275   -5.298664 C.3        1 UNL1     -0.0615
     27 C         -7.413796   5.220458   2.889202 C.ar        1 UNL1     0.1347
     28 C         -6.625   5.042195   4.011732 C.ar        1 UNL1     0.0342
     29 C         -5.363314   4.465114   3.754261 C.ar        1 UNL1     0.1435
     30 C         -4.961711   4.061311   2.480338 C.ar        1 UNL1     0.0774
     31 O         -4.5254   4.125903   4.758174 O.3        1 UNL1     -0.4436
     32 C         -3.620617   3.1786   4.170928 C.3        1 UNL1     0.3143
     33 C         -3.657998   3.464745   2.683333 C.2        1 UNL1     0.2504
     34 C         -7.059262   5.247926   5.436228 C.3        1 UNL1     -0.0327
     35 O         -2.302879   3.509308   4.626395 O.2        1 UNL1     -0.4528
     36 C         -0.384047   0.23573   4.725713 C.3        1 UNL1     0.0854
     37 C         -0.118332   -0.798976   3.565411 C.3        1 UNL1     0.0236
     38 C         1.426428   -1.145055   3.309106 C.3        1 UNL1     0.1131
     39 C         2.473373   0.026366   3.124862 C.3        1 UNL1     0.0200
     40 C         2.105389   1.346605   2.174076 C.3        1 UNL1     0.0661
     41 C         1.489688   1.292752   0.594322 C.3        1 UNL1     0.0091
     42 C         0.35364   2.437629   -0.279781 C.3        1 UNL1     0.0661
     43 C         -7.980869   4.886628   0.473703 C.2        1 UNL1     0.2131
     44 O         -9.184063   5.024363   0.600554 O.2        1 UNL1     -0.2851
     45 O         -8.642976   5.863941   3.017589 O.3        1 UNL1     -0.5056
     46 O         -2.796909   3.265692   1.855832 O.2        1 UNL1     -0.2836
     47 C         0.65263   5.0858   -0.404719 C.3        1 UNL1     -0.0566
     48 O         1.185713   2.509583   -1.505176 O.3        1 UNL1     -0.3909
     49 C         1.00882   -0.111847   0.305602 C.3        1 UNL1     -0.0577
     50 O         1.423294   2.330615   2.925204 O.3        1 UNL1     -0.3910
     51 O         0.75825   0.855626   5.271898 O.3        1 UNL1     -0.3753
     52 C         -1.13855   -0.63227   2.392247 C.3        1 UNL1     -0.0564
     53 O         1.635809   -2.367265   2.463714 O.3        1 UNL1     -0.4608
     54 C         2.772757   -2.65991   1.756864 C.2        1 UNL1     0.3042
     55 O         3.30511   -3.760805   1.620966 O.2        1 UNL1     -0.2512
     56 C         3.359711   -1.47477   1.044374 C.3        1 UNL1     0.0332
     57 C         3.148178   0.298553   4.549196 C.3        1 UNL1     -0.0567
     58 C         -4.227087   1.778915   4.425106 C.3        1 UNL1     0.0210
     59 C         0.486635   1.850091   6.258372 C.3        1 UNL1     0.0372
     60 C         -1.343833   1.32295   4.39116 C.2        1 UNL1     -0.0208
     61 C         -1.278437   2.63496   4.621587 C.2        1 UNL1     0.0882
     62 H         -0.953263   3.97776   0.477138 H        1 UNL1     0.0365
     63 H         -2.5907   5.047165   -0.11057 H        1 UNL1     0.0576
     64 H         -2.523011   5.61117   -3.139446 H        1 UNL1     0.0615
     65 H         -4.638977   6.188958   -0.915326 H        1 UNL1     0.0622
     66 H         -0.863152   -0.35572   5.518614 H        1 UNL1     0.0645
     67 H         -0.493685   -1.755739   3.968244 H        1 UNL1     0.0362
     68 H         1.674098   -1.608274   4.276376 H        1 UNL1     0.0741
     69 H         3.35914   -0.370466   2.647004 H        1 UNL1     0.0359
     70 H         3.119718   1.7645   2.02724 H        1 UNL1     0.0600
     71 H         2.434844   1.321455   0.017421 H        1 UNL1     0.0348
     72 H         0.763852   3.005802   0.567699 H        1 UNL1     0.0602
     73 H         -2.23826   0.894742   4.011837 H        1 UNL1     0.0628
     74 H         -0.381495   3.158744   4.953827 H        1 UNL1     0.1022
     75 H         -5.761806   7.809546   -4.527835 H        1 UNL1     0.0279
     76 H         -5.820014   6.141285   -4.936268 H        1 UNL1     0.0279
     77 H         -7.223909   6.987971   -4.169782 H        1 UNL1     0.0279
     78 H         -7.535668   4.899132   -2.78034 H        1 UNL1     0.1553
     79 H         -5.96208   3.721413   -3.031383 H        1 UNL1     0.1484
     80 H         -4.56486   0.497376   -1.584713 H        1 UNL1     0.0317
     81 H         -6.092352   1.191085   -1.059868 H        1 UNL1     0.0317
     82 H         -6.674422   1.836723   -3.413174 H        1 UNL1     0.0428
     83 H         -6.364098   0.12353   -3.238894 H        1 UNL1     0.0428
     84 H         -3.197193   2.480358   -4.826096 H        1 UNL1     0.0428
     85 H         -4.664539   3.315591   -4.454067 H        1 UNL1     0.0428
     86 H         -2.82116   3.467618   -2.779643 H        1 UNL1     0.0317
     87 H         -2.786913   1.78469   -2.517098 H        1 UNL1     0.0317
     88 H         -4.284676   0.471865   -6.047376 H        1 UNL1     0.0429
     89 H         -5.832545   -0.131978   -5.45096 H        1 UNL1     0.0429
     90 H         -5.143165   2.422025   -6.880876 H        1 UNL1     0.0308
     91 H         -7.618554   0.624464   -6.686255 H        1 UNL1     0.0233
     92 H         -7.611834   2.170045   -7.573177 H        1 UNL1     0.0233
     93 H         -6.57738   0.854168   -8.085989 H        1 UNL1     0.0233
     94 H         -7.232763   3.504616   -5.771574 H        1 UNL1     0.0233
     95 H         -6.851533   2.425352   -4.420951 H        1 UNL1     0.0233
     96 H         -5.651713   3.617614   -4.971345 H        1 UNL1     0.0233
     97 H         -6.241052   5.581479   6.067501 H        1 UNL1     0.0280
     98 H         -7.839085   6.015627   5.524365 H        1 UNL1     0.0280
     99 H         -7.446512   4.300079   5.844542 H        1 UNL1     0.0280
     100 H         -8.947024   6.287262   2.234022 H        1 UNL1     0.2922
     101 H         1.600074   4.547396   -0.415953 H        1 UNL1     0.0236
     102 H         0.566161   5.743441   0.459581 H        1 UNL1     0.0236
     103 H         0.706988   5.766001   -1.271071 H        1 UNL1     0.0236
     104 H         1.820832   3.242943   -1.387798 H        1 UNL1     0.2098
     105 H         1.545291   -0.614481   -0.495253 H        1 UNL1     0.0234
     106 H         0.942178   -0.759098   1.179989 H        1 UNL1     0.0234
     107 H         -0.0   0.0   0.0 H        1 UNL1     0.0234
     108 H         0.977212   2.923111   2.289808 H        1 UNL1     0.2098
     109 H         -1.099985   0.371688   1.946947 H        1 UNL1     0.0234
     110 H         -1.018347   -1.3863   1.606923 H        1 UNL1     0.0234
     111 H         -2.173573   -0.766356   2.733851 H        1 UNL1     0.0234
     112 H         3.94808   -0.87367   1.744264 H        1 UNL1     0.0342
     113 H         3.958099   -1.769491   0.18361 H        1 UNL1     0.0342
     114 H         2.532988   -0.851147   0.67724 H        1 UNL1     0.0342
     115 H         3.547846   -0.622922   4.994545 H        1 UNL1     0.0234
     116 H         3.95883   1.029482   4.523972 H        1 UNL1     0.0234
     117 H         2.428449   0.614807   5.323739 H        1 UNL1     0.0234
     118 H         -4.144272   1.477242   5.483945 H        1 UNL1     0.0309
     119 H         -5.272731   1.700269   4.111029 H        1 UNL1     0.0309
     120 H         -3.690354   0.985422   3.8937 H        1 UNL1     0.0309
     121 H         1.440485   2.163919   6.681501 H        1 UNL1     0.0524
     122 H         0.003592   2.743839   5.829511 H        1 UNL1     0.0524
     123 H         -0.15275   1.442865   7.036477 H        1 UNL1     0.0524
@<TRIPOS>BOND
     1     1     2    1
     2     1    42    1
     3     2     3    2
     4     3     4    1
     5     4     5    2
     6     5     7    1
     7     6    75    1
     8     6    76    1
     9     6    77    1
    10     7     9   am
    11     9    10    1
    12    10    11    2
    13    10    43    1
    14    11    14    1
    15    11    15    1
    16    12    13   ar
    17    12    27   ar
    18    12    43    1
    19    13    14    1
    20    13    30   ar
    21    14    17    2
    22    15    16    1
    23    16    17    1
    24    16    18    1
    25    16    22    1
    26    18    19    1
    27    19    20    1
    28    20    21    1
    29    21    22    1
    30    23    24    1
    31    23    88    1
    32    23    89    1
    33    24    25    1
    34    24    26    1
    35    24    90    1
    36    25    91    1
    37    25    92    1
    38    25    93    1
    39    26    94    1
    40    26    95    1
    41    26    96    1
    42    27    28   ar
    43    28    29   ar
    44    29    30   ar
    45    29    31    1
    46    30    33    1
    47    31    32    1
    48    32    33    1
    49    32    35    1
    50    34    97    1
    51    34    98    1
    52    34    99    1
    53    35    61    1
    54    36    37    1
    55    36    60    1
    56    37    38    1
    57    38    39    1
    58    39    40    1
    59    40    41    1
    60    41    42    1
    61    45   100    1
    62    47   101    1
    63    47   102    1
    64    47   103    1
    65    48   104    1
    66    49   105    1
    67    49   106    1
    68    49   107    1
    69    50   108    1
    70    51    59    1
    71    52   109    1
    72    52   110    1
    73    52   111    1
    74    53    54    1
    75    54    55    2
    76    54    56    1
    77    56   112    1
    78    56   113    1
    79    56   114    1
    80    57   115    1
    81    57   116    1
    82    57   117    1
    83    58   118    1
    84    58   119    1
    85    58   120    1
    86    59   121    1
    87    59   122    1
    88    59   123    1
    89    60    61    2
    90     1    47    1
    91     1    62    1
    92     2    63    1
    93     3    64    1
    94     4    65    1
    95     5     6    1
    96     7     8    2
    97     9    78    1
    98    15    79    1
    99    18    80    1
   100    18    81    1
   101    19    82    1
   102    19    83    1
   103    20    23    1
   104    21    84    1
   105    21    85    1
   106    22    86    1
   107    22    87    1
   108    27    45    1
   109    28    34    1
   110    32    58    1
   111    33    46    2
   112    36    51    1
   113    36    66    1
   114    37    52    1
   115    37    67    1
   116    38    53    1
   117    38    68    1
   118    42    48    1
   119    42    72    1
   120    43    44    2
   121    60    73    1
   122    61    74    1
   123    39    69    1
   124    39    57    1
   125    40    70    1
   126    40    50    1
   127    41    71    1
   128    41    49    1
