@<TRIPOS>MOLECULE
*****
 123 128 0 0 0
SMALL
GASTEIGER

@<TRIPOS>ATOM
     1 C         5.168221   1.75091   0.472309 C.3        1 UNL1     0.0009
     2 C         6.604549   2.549173   -0.386047 C.2        1 UNL1     -0.0787
     3 C         7.885866   2.444809   -1.051915 C.2        1 UNL1     -0.0649
     4 C         8.763193   3.673098   -1.818701 C.2        1 UNL1     -0.0542
     5 C         9.782593   3.957325   -2.76057 C.2        1 UNL1     0.0115
     6 C         10.909872   3.324077   -3.62171 C.3        1 UNL1     -0.0348
     7 C         9.878023   5.435314   -3.379788 C.2        1 UNL1     0.2441
     8 O         10.702517   6.259834   -3.009785 O.2        1 UNL1     -0.2702
     9 N         9.126961   5.632574   -4.551601 N.am        1 UNL1     -0.2772
     10 C         7.844641   6.022418   -4.240155 C.2        1 UNL1     0.1049
     11 C         6.998713   5.053861   -3.939278 C.2        1 UNL1     0.0801
     12 C         6.547972   7.641557   -2.842166 C.ar        1 UNL1     0.0753
     13 C         5.788835   6.517797   -2.384472 C.ar        1 UNL1     0.0305
     14 C         5.90476   5.20659   -3.018781 C.2        1 UNL1     0.0924
     15 N         7.1207   3.723526   -4.087114 N.pl3        1 UNL1     -0.3170
     16 C         5.850859   3.127554   -3.766842 C.3        1 UNL1     0.1275
     17 N         5.215594   4.091365   -2.794612 N.2        1 UNL1     -0.2557
     18 C         4.997041   3.176168   -5.030303 C.3        1 UNL1     0.0016
     19 C         5.750773   2.482174   -6.153623 C.3        1 UNL1     0.0026
     20 N         6.020691   1.107311   -5.756227 N.3        1 UNL1     -0.3018
     21 C         6.784959   0.957204   -4.516175 C.3        1 UNL1     0.0026
     22 C         6.007359   1.65757   -3.400504 C.3        1 UNL1     0.0016
     23 C         6.464011   0.278158   -6.85923 C.3        1 UNL1     0.0012
     24 C         5.3077   0.020759   -7.838232 C.3        1 UNL1     -0.0339
     25 C         5.382727   0.956784   -9.055723 C.3        1 UNL1     -0.0615
     26 C         5.294115   -1.439468   -8.255763 C.3        1 UNL1     -0.0615
     27 C         6.344222   8.91389   -2.313232 C.ar        1 UNL1     0.1347
     28 C         5.386022   9.191997   -1.354816 C.ar        1 UNL1     0.0342
     29 C         4.684388   8.061793   -0.884166 C.ar        1 UNL1     0.1435
     30 C         4.902943   6.775412   -1.378816 C.ar        1 UNL1     0.0774
     31 O         3.644113   8.183047   -0.03086 O.3        1 UNL1     -0.4436
     32 C         2.921851   6.94934   -0.161922 C.3        1 UNL1     0.3143
     33 C         3.934348   5.951332   -0.686368 C.2        1 UNL1     0.2504
     34 C         4.940054   10.561988   -0.925471 C.3        1 UNL1     -0.0327
     35 O         2.562088   6.524037   1.158282 O.2        1 UNL1     -0.4528
     36 C         -0.682011   4.589797   0.78062 C.3        1 UNL1     0.0854
     37 C         -0.98851   3.321713   -0.105689 C.3        1 UNL1     0.0236
     38 C         -1.588924   2.06768   0.693465 C.3        1 UNL1     0.1131
     39 C         -0.862338   1.547599   1.998785 C.3        1 UNL1     0.0200
     40 C         0.79883   1.401764   2.039883 C.3        1 UNL1     0.0661
     41 C         1.756977   0.622602   0.876924 C.3        1 UNL1     0.0091
     42 C         3.464255   0.979661   0.308493 C.3        1 UNL1     0.0661
     43 C         7.497045   7.423914   -3.962055 C.2        1 UNL1     0.2131
     44 O         7.896702   8.315663   -4.68855 O.2        1 UNL1     -0.2851
     45 O         7.156521   9.944725   -2.781193 O.3        1 UNL1     -0.5056
     46 O         3.949979   4.748953   -0.545322 O.2        1 UNL1     -0.2836
     47 C         5.565562   1.333586   1.913816 C.3        1 UNL1     -0.0566
     48 O         3.912342   -0.430869   0.401982 O.3        1 UNL1     -0.3909
     49 C         0.921715   0.379747   -0.360352 C.3        1 UNL1     -0.0577
     50 O         1.399809   2.622704   2.421787 O.3        1 UNL1     -0.3910
     51 O         -0.805065   4.412072   2.173712 O.3        1 UNL1     -0.3753
     52 C         0.054965   3.150986   -1.257627 C.3        1 UNL1     -0.0564
     53 O         -2.192643   1.021277   -0.196979 O.3        1 UNL1     -0.4608
     54 C         -2.427285   -0.282431   0.154046 C.2        1 UNL1     0.3042
     55 O         -1.8579   -1.28538   -0.274594 O.2        1 UNL1     -0.2512
     56 C         -3.468017   -0.438629   1.22605 C.3        1 UNL1     0.0332
     57 C         -1.582103   2.227635   3.254836 C.3        1 UNL1     -0.0567
     58 C         1.845886   7.185573   -1.24729 C.3        1 UNL1     0.0210
     59 C         -1.117217   5.597486   2.903932 C.3        1 UNL1     0.0372
     60 C         0.647043   5.216364   0.543577 C.2        1 UNL1     -0.0208
     61 C         1.56084   5.658658   1.408502 C.2        1 UNL1     0.0882
     62 H         4.692751   2.73598   0.551535 H        1 UNL1     0.0365
     63 H         6.338793   3.603939   -0.289548 H        1 UNL1     0.0576
     64 H         8.342971   1.475924   -1.265049 H        1 UNL1     0.0615
     65 H         8.276742   4.591619   -1.479338 H        1 UNL1     0.0622
     66 H         -1.426621   5.333937   0.464617 H        1 UNL1     0.0645
     67 H         -1.854428   3.626178   -0.718916 H        1 UNL1     0.0362
     68 H         -2.535543   2.507921   1.042208 H        1 UNL1     0.0741
     69 H         -1.194095   0.538341   2.203094 H        1 UNL1     0.0359
     70 H         0.911057   0.748952   2.92662 H        1 UNL1     0.0600
     71 H         1.800507   -0.394891   1.312552 H        1 UNL1     0.0348
     72 H         3.359348   1.476272   1.284038 H        1 UNL1     0.0602
     73 H         0.764183   5.404691   -0.49472 H        1 UNL1     0.0628
     74 H         1.544071   5.457163   2.480116 H        1 UNL1     0.1022
     75 H         10.935418   2.21656   -3.481039 H        1 UNL1     0.0279
     76 H         10.808854   3.420945   -4.700358 H        1 UNL1     0.0279
     77 H         11.916124   3.609124   -3.28126 H        1 UNL1     0.0279
     78 H         9.064202   4.75819   -5.068894 H        1 UNL1     0.1553
     79 H         7.785308   3.290005   -4.701352 H        1 UNL1     0.1484
     80 H         4.035725   2.687293   -4.831204 H        1 UNL1     0.0317
     81 H         4.770616   4.210654   -5.309988 H        1 UNL1     0.0317
     82 H         6.681442   3.010967   -6.406893 H        1 UNL1     0.0428
     83 H         5.124925   2.52993   -7.045298 H        1 UNL1     0.0428
     84 H         6.905124   -0.083111   -4.198186 H        1 UNL1     0.0428
     85 H         7.815111   1.323928   -4.623964 H        1 UNL1     0.0428
     86 H         6.524416   1.414785   -2.490726 H        1 UNL1     0.0317
     87 H         5.02783   1.181408   -3.270546 H        1 UNL1     0.0317
     88 H         7.25986   0.815107   -7.391776 H        1 UNL1     0.0429
     89 H         6.896522   -0.664746   -6.500567 H        1 UNL1     0.0429
     90 H         4.355491   0.193801   -7.322898 H        1 UNL1     0.0308
     91 H         6.337287   0.851663   -9.580001 H        1 UNL1     0.0233
     92 H         4.566491   0.750924   -9.752135 H        1 UNL1     0.0233
     93 H         5.28762   2.013192   -8.776812 H        1 UNL1     0.0233
     94 H         4.601301   -1.586971   -9.09128 H        1 UNL1     0.0233
     95 H         6.291245   -1.742626   -8.587108 H        1 UNL1     0.0233
     96 H         4.983987   -2.087418   -7.431172 H        1 UNL1     0.0233
     97 H         4.140993   10.518937   -0.191388 H        1 UNL1     0.0280
     98 H         5.750986   11.132294   -0.453882 H        1 UNL1     0.0280
     99 H         4.574703   11.12256   -1.80147 H        1 UNL1     0.0280
     100 H         6.689535   10.693263   -3.108663 H        1 UNL1     0.2922
     101 H         4.699854   0.916081   2.427523 H        1 UNL1     0.0236
     102 H         6.02821   2.140263   2.481453 H        1 UNL1     0.0236
     103 H         6.312319   0.522094   1.919041 H        1 UNL1     0.0236
     104 H         4.327152   -0.551089   1.278596 H        1 UNL1     0.2098
     105 H         0.708952   1.273719   -0.941178 H        1 UNL1     0.0234
     106 H         1.290271   -0.41401   -1.01 H        1 UNL1     0.0234
     107 H         0.0   -0.0   0.0 H        1 UNL1     0.0234
     108 H         1.21597   3.270327   1.714287 H        1 UNL1     0.2098
     109 H         1.081516   3.052757   -0.877816 H        1 UNL1     0.0234
     110 H         -0.171676   2.310634   -1.922597 H        1 UNL1     0.0234
     111 H         0.067175   4.02288   -1.925159 H        1 UNL1     0.0234
     112 H         -3.591571   -1.497365   1.473352 H        1 UNL1     0.0342
     113 H         -3.231689   0.145111   2.114442 H        1 UNL1     0.0342
     114 H         -4.425174   -0.071101   0.831158 H        1 UNL1     0.0342
     115 H         -2.651791   1.980113   3.295925 H        1 UNL1     0.0234
     116 H         -1.144978   1.955946   4.217725 H        1 UNL1     0.0234
     117 H         -1.620317   3.329049   3.1968 H        1 UNL1     0.0234
     118 H         0.944709   7.674939   -0.838136 H        1 UNL1     0.0309
     119 H         2.214372   7.767446   -2.09808 H        1 UNL1     0.0309
     120 H         1.45772   6.250186   -1.665003 H        1 UNL1     0.0309
     121 H         -0.279002   6.28453   2.791138 H        1 UNL1     0.0524
     122 H         -2.01623   6.103944   2.514941 H        1 UNL1     0.0524
     123 H         -1.270988   5.3629   3.953417 H        1 UNL1     0.0524
@<TRIPOS>BOND
     1     1     2    1
     2     1    42    1
     3     2     3    2
     4     3     4    1
     5     4     5    2
     6     5     7    1
     7     6    75    1
     8     6    76    1
     9     6    77    1
    10     7     9   am
    11     9    10    1
    12    10    11    2
    13    10    43    1
    14    11    14    1
    15    11    15    1
    16    12    13   ar
    17    12    27   ar
    18    12    43    1
    19    13    14    1
    20    13    30   ar
    21    14    17    2
    22    15    16    1
    23    16    17    1
    24    16    18    1
    25    16    22    1
    26    18    19    1
    27    19    20    1
    28    20    21    1
    29    21    22    1
    30    23    24    1
    31    23    88    1
    32    23    89    1
    33    24    25    1
    34    24    26    1
    35    24    90    1
    36    25    91    1
    37    25    92    1
    38    25    93    1
    39    26    94    1
    40    26    95    1
    41    26    96    1
    42    27    28   ar
    43    28    29   ar
    44    29    30   ar
    45    29    31    1
    46    30    33    1
    47    31    32    1
    48    32    33    1
    49    32    35    1
    50    34    97    1
    51    34    98    1
    52    34    99    1
    53    35    61    1
    54    36    37    1
    55    36    60    1
    56    37    38    1
    57    38    39    1
    58    39    40    1
    59    40    41    1
    60    41    42    1
    61    45   100    1
    62    47   101    1
    63    47   102    1
    64    47   103    1
    65    48   104    1
    66    49   105    1
    67    49   106    1
    68    49   107    1
    69    50   108    1
    70    51    59    1
    71    52   109    1
    72    52   110    1
    73    52   111    1
    74    53    54    1
    75    54    55    2
    76    54    56    1
    77    56   112    1
    78    56   113    1
    79    56   114    1
    80    57   115    1
    81    57   116    1
    82    57   117    1
    83    58   118    1
    84    58   119    1
    85    58   120    1
    86    59   121    1
    87    59   122    1
    88    59   123    1
    89    60    61    2
    90     1    47    1
    91     1    62    1
    92     2    63    1
    93     3    64    1
    94     4    65    1
    95     5     6    1
    96     7     8    2
    97     9    78    1
    98    15    79    1
    99    18    80    1
   100    18    81    1
   101    19    82    1
   102    19    83    1
   103    20    23    1
   104    21    84    1
   105    21    85    1
   106    22    86    1
   107    22    87    1
   108    27    45    1
   109    28    34    1
   110    32    58    1
   111    33    46    2
   112    36    51    1
   113    36    66    1
   114    37    52    1
   115    37    67    1
   116    38    53    1
   117    38    68    1
   118    42    48    1
   119    42    72    1
   120    43    44    2
   121    60    73    1
   122    61    74    1
   123    39    69    1
   124    39    57    1
   125    40    70    1
   126    40    50    1
   127    41    71    1
   128    41    49    1
