@<TRIPOS>MOLECULE
*****
 123 128 0 0 0
SMALL
GASTEIGER

@<TRIPOS>ATOM
     1 C         4.540951   -2.130842   0.902989 C.3        1 UNL1     0.0009
     2 C         5.542591   -2.967044   2.220001 C.2        1 UNL1     -0.0787
     3 C         6.4092   -2.891071   3.377267 C.2        1 UNL1     -0.0649
     4 C         6.981328   -4.165111   4.334267 C.2        1 UNL1     -0.0542
     5 C         7.52791   -4.516993   5.593039 C.2        1 UNL1     0.0115
     6 C         8.12831   -3.944743   6.906573 C.3        1 UNL1     -0.0348
     7 C         7.477723   -6.05204   6.060052 C.2        1 UNL1     0.2441
     8 O         8.447847   -6.795463   6.008015 O.2        1 UNL1     -0.2702
     9 N         6.321885   -6.412925   6.77416 N.am        1 UNL1     -0.2772
     10 C         5.328924   -6.813403   5.909888 C.2        1 UNL1     0.1049
     11 C         4.610449   -5.849998   5.362287 C.2        1 UNL1     0.0801
     12 C         4.885658   -8.3084   3.953914 C.ar        1 UNL1     0.0753
     13 C         4.29858   -7.169394   3.31625 C.ar        1 UNL1     0.0305
     14 C         4.024526   -5.937159   4.052145 C.2        1 UNL1     0.0924
     15 N         4.54559   -4.542087   5.66509 N.pl3        1 UNL1     -0.3170
     16 C         3.484206   -3.962649   4.885365 C.3        1 UNL1     0.1275
     17 N         3.402754   -4.831013   3.653686 N.2        1 UNL1     -0.2557
     18 C         2.184359   -4.190625   5.650954 C.3        1 UNL1     0.0016
     19 C         2.331792   -3.602993   7.045422 C.3        1 UNL1     0.0026
     20 N         2.626832   -2.181877   6.925374 N.3        1 UNL1     -0.3018
     21 C         3.827384   -1.859359   6.151408 C.3        1 UNL1     0.0026
     22 C         3.655718   -2.455129   4.753022 C.3        1 UNL1     0.0016
     23 C         2.491231   -1.469777   8.180432 C.3        1 UNL1     0.0012
     24 C         2.743748   0.032473   7.977363 C.3        1 UNL1     -0.0339
     25 C         2.336232   0.485446   6.565697 C.3        1 UNL1     -0.0615
     26 C         2.024189   0.831208   9.050227 C.3        1 UNL1     -0.0615
     27 C         5.032673   -9.517687   3.27854 C.ar        1 UNL1     0.1347
     28 C         4.595894   -9.719621   1.981429 C.ar        1 UNL1     0.0342
     29 C         4.065643   -8.570486   1.357341 C.ar        1 UNL1     0.1435
     30 C         3.945272   -7.342704   2.009478 C.ar        1 UNL1     0.0774
     31 O         3.497144   -8.632126   0.133406 O.3        1 UNL1     -0.4436
     32 C         2.685532   -7.450897   0.050613 C.3        1 UNL1     0.3143
     33 C         3.293588   -6.482003   1.044456 C.2        1 UNL1     0.2504
     34 C         4.490512   -11.046778   1.283112 C.3        1 UNL1     -0.0327
     35 O         2.882092   -6.889521   -1.253026 O.2        1 UNL1     -0.4528
     36 C         -0.36907   -5.139398   -2.13343 C.3        1 UNL1     0.0854
     37 C         -1.127121   -3.995583   -1.35589 C.3        1 UNL1     0.0236
     38 C         -1.437827   -2.681503   -2.22099 C.3        1 UNL1     0.1131
     39 C         -0.275041   -1.985677   -3.037094 C.3        1 UNL1     0.0200
     40 C         1.229321   -1.771774   -2.348925 C.3        1 UNL1     0.0661
     41 C         1.53732   -1.09629   -0.823648 C.3        1 UNL1     0.0091
     42 C         2.868565   -1.450453   0.387862 C.3        1 UNL1     0.0661
     43 C         5.251155   -8.185569   5.386947 C.2        1 UNL1     0.2131
     44 O         5.380676   -9.139438   6.132665 O.2        1 UNL1     -0.2851
     45 O         5.655538   -10.563596   3.956442 O.3        1 UNL1     -0.5056
     46 O         3.265498   -5.271683   1.03062 O.2        1 UNL1     -0.2836
     47 C         5.472744   -1.533959   -0.185806 C.3        1 UNL1     -0.0566
     48 O         3.19312   -0.022302   0.620597 O.3        1 UNL1     -0.3909
     49 C         0.240612   -1.031229   -0.047884 C.3        1 UNL1     -0.0577
     50 O         2.036267   -2.915923   -2.542534 O.3        1 UNL1     -0.3910
     51 O         0.092856   -4.806106   -3.422992 O.3        1 UNL1     -0.3753
     52 C         -0.685975   -3.919376   0.142286 C.3        1 UNL1     -0.0564
     53 O         -2.447135   -1.769704   -1.586761 O.3        1 UNL1     -0.4608
     54 C         -3.398582   -1.047211   -2.258091 C.2        1 UNL1     0.3042
     55 O         -3.288387   -0.507988   -3.358515 O.2        1 UNL1     -0.2512
     56 C         -4.720799   -0.987508   -1.547534 C.3        1 UNL1     0.0332
     57 C         -0.33697   -2.542736   -4.535101 C.3        1 UNL1     -0.0567
     58 C         1.276226   -7.853024   0.544252 C.3        1 UNL1     0.0210
     59 C         -0.005666   -3.42214   -3.755852 C.3        1 UNL1     0.0372
     60 C         0.783478   -5.737248   -1.405851 C.2        1 UNL1     -0.0208
     61 C         2.010774   -6.040418   -1.830795 C.2        1 UNL1     0.0882
     62 H         4.228585   -3.117747   0.540832 H        1 UNL1     0.0365
     63 H         5.4327   -4.012988   1.926069 H        1 UNL1     0.0576
     64 H         6.649834   -1.936482   3.850513 H        1 UNL1     0.0615
     65 H         6.763226   -5.056203   3.739398 H        1 UNL1     0.0622
     66 H         -1.111571   -5.943485   -2.234339 H        1 UNL1     0.0645
     67 H         -2.141775   -4.402495   -1.20272 H        1 UNL1     0.0362
     68 H         -2.107781   -3.114659   -2.979317 H        1 UNL1     0.0741
     69 H         -0.573636   -0.973151   -3.273823 H        1 UNL1     0.0359
     70 H         1.649677   -1.016608   -3.040363 H        1 UNL1     0.0600
     71 H         1.674399   -0.034199   -1.10672 H        1 UNL1     0.0348
     72 H         3.227678   -1.834183   -0.578111 H        1 UNL1     0.0602
     73 H         0.466872   -6.040117   -0.438753 H        1 UNL1     0.0628
     74 H         2.430923   -5.716722   -2.78365 H        1 UNL1     0.1022
     75 H         8.265939   -2.839498   6.825786 H        1 UNL1     0.0279
     76 H         7.517037   -4.039921   7.8012 H        1 UNL1     0.0279
     77 H         9.160988   -4.279461   7.083324 H        1 UNL1     0.0279
     78 H         5.972905   -5.607578   7.289628 H        1 UNL1     0.1553
     79 H         4.849505   -4.157345   6.540614 H        1 UNL1     0.1484
     80 H         1.359362   -3.719582   5.10299 H        1 UNL1     0.0317
     81 H         1.949463   -5.258573   5.713901 H        1 UNL1     0.0317
     82 H         3.10964   -4.121128   7.625423 H        1 UNL1     0.0428
     83 H         1.394569   -3.778132   7.574562 H        1 UNL1     0.0428
     84 H         3.982046   -0.785299   6.008979 H        1 UNL1     0.0428
     85 H         4.742719   -2.195904   6.657587 H        1 UNL1     0.0428
     86 H         4.485888   -2.088542   4.178199 H        1 UNL1     0.0317
     87 H         2.786173   -2.005434   4.258289 H        1 UNL1     0.0317
     88 H         1.463202   -1.60577   8.540927 H        1 UNL1     0.0429
     89 H         3.158427   -1.883309   8.947644 H        1 UNL1     0.0429
     90 H         3.811629   0.239118   8.115717 H        1 UNL1     0.0308
     91 H         1.248013   0.525405   6.459469 H        1 UNL1     0.0233
     92 H         2.754993   1.46888   6.339633 H        1 UNL1     0.0233
     93 H         2.707284   -0.191366   5.786543 H        1 UNL1     0.0233
     94 H         2.262587   1.895819   8.95222 H        1 UNL1     0.0233
     95 H         0.94233   0.71638   8.939062 H        1 UNL1     0.0233
     96 H         2.312793   0.503325   10.052808 H        1 UNL1     0.0233
     97 H         3.48099   -11.445534   1.316115 H        1 UNL1     0.0280
     98 H         4.751173   -10.976338   0.218993 H        1 UNL1     0.0280
     99 H         5.164746   -11.772665   1.766427 H        1 UNL1     0.0280
     100 H         5.785409   -11.341057   3.442331 H        1 UNL1     0.2922
     101 H         5.020034   -0.635627   -0.604984 H        1 UNL1     0.0236
     102 H         5.745456   -2.252854   -0.957688 H        1 UNL1     0.0236
     103 H         6.434259   -1.193345   0.233314 H        1 UNL1     0.0236
     104 H         2.441142   0.508382   0.292154 H        1 UNL1     0.2098
     105 H         -0.592095   -1.545548   -0.52105 H        1 UNL1     0.0234
     106 H         0.320775   -1.325245   0.998565 H        1 UNL1     0.0234
     107 H         0.0   0.0   0.0 H        1 UNL1     0.0234
     108 H         2.02129   -3.123388   -3.496736 H        1 UNL1     0.2098
     109 H         -1.315041   -3.233554   0.726782 H        1 UNL1     0.0234
     110 H         -0.657305   -4.898294   0.632837 H        1 UNL1     0.0234
     111 H         0.339904   -3.540824   0.24336 H        1 UNL1     0.0234
     112 H         -4.799086   -1.815815   -0.836813 H        1 UNL1     0.0342
     113 H         -4.876152   -0.03078   -1.051168 H        1 UNL1     0.0342
     114 H         -5.517463   -1.108221   -2.294475 H        1 UNL1     0.0342
     115 H         0.59972   -2.357599   -5.078723 H        1 UNL1     0.0234
     116 H         -0.550262   -3.611361   -4.602896 H        1 UNL1     0.0234
     117 H         -1.062597   -2.009479   -5.173101 H        1 UNL1     0.0234
     118 H         0.47921   -7.454211   -0.107455 H        1 UNL1     0.0309
     119 H         1.148765   -8.935578   0.644416 H        1 UNL1     0.0309
     120 H         1.037075   -7.427511   1.524992 H        1 UNL1     0.0309
     121 H         -0.474367   -3.351584   -4.737024 H        1 UNL1     0.0524
     122 H         -0.638197   -2.864862   -3.044949 H        1 UNL1     0.0524
     123 H         0.981762   -2.969861   -3.778741 H        1 UNL1     0.0524
@<TRIPOS>BOND
     1     1     2    1
     2     1    42    1
     3     2     3    2
     4     3     4    1
     5     4     5    2
     6     5     7    1
     7     6    75    1
     8     6    76    1
     9     6    77    1
    10     7     9   am
    11     9    10    1
    12    10    11    2
    13    10    43    1
    14    11    14    1
    15    11    15    1
    16    12    13   ar
    17    12    27   ar
    18    12    43    1
    19    13    14    1
    20    13    30   ar
    21    14    17    2
    22    15    16    1
    23    16    17    1
    24    16    18    1
    25    16    22    1
    26    18    19    1
    27    19    20    1
    28    20    21    1
    29    21    22    1
    30    23    24    1
    31    23    88    1
    32    23    89    1
    33    24    25    1
    34    24    26    1
    35    24    90    1
    36    25    91    1
    37    25    92    1
    38    25    93    1
    39    26    94    1
    40    26    95    1
    41    26    96    1
    42    27    28   ar
    43    28    29   ar
    44    29    30   ar
    45    29    31    1
    46    30    33    1
    47    31    32    1
    48    32    33    1
    49    32    35    1
    50    34    97    1
    51    34    98    1
    52    34    99    1
    53    35    61    1
    54    36    37    1
    55    36    60    1
    56    37    38    1
    57    38    39    1
    58    39    40    1
    59    40    41    1
    60    41    42    1
    61    45   100    1
    62    47   101    1
    63    47   102    1
    64    47   103    1
    65    48   104    1
    66    49   105    1
    67    49   106    1
    68    49   107    1
    69    50   108    1
    70    51    59    1
    71    52   109    1
    72    52   110    1
    73    52   111    1
    74    53    54    1
    75    54    55    2
    76    54    56    1
    77    56   112    1
    78    56   113    1
    79    56   114    1
    80    57   115    1
    81    57   116    1
    82    57   117    1
    83    58   118    1
    84    58   119    1
    85    58   120    1
    86    59   121    1
    87    59   122    1
    88    59   123    1
    89    60    61    2
    90     1    47    1
    91     1    62    1
    92     2    63    1
    93     3    64    1
    94     4    65    1
    95     5     6    1
    96     7     8    2
    97     9    78    1
    98    15    79    1
    99    18    80    1
   100    18    81    1
   101    19    82    1
   102    19    83    1
   103    20    23    1
   104    21    84    1
   105    21    85    1
   106    22    86    1
   107    22    87    1
   108    27    45    1
   109    28    34    1
   110    32    58    1
   111    33    46    2
   112    36    51    1
   113    36    66    1
   114    37    52    1
   115    37    67    1
   116    38    53    1
   117    38    68    1
   118    42    48    1
   119    42    72    1
   120    43    44    2
   121    60    73    1
   122    61    74    1
   123    39    69    1
   124    39    57    1
   125    40    70    1
   126    40    50    1
   127    41    71    1
   128    41    49    1
