@<TRIPOS>MOLECULE
*****
 123 128 0 0 0
SMALL
GASTEIGER

@<TRIPOS>ATOM
     1 C         3.206947   1.613882   -2.254302 C.3        1 UNL1     0.0009
     2 C         3.334932   3.313972   -2.982555 C.2        1 UNL1     -0.0787
     3 C         3.294891   4.194819   -4.130836 C.2        1 UNL1     -0.0649
     4 C         3.383637   5.885426   -4.149047 C.2        1 UNL1     -0.0542
     5 C         3.108518   7.054475   -4.900519 C.2        1 UNL1     0.0115
     6 C         2.680242   7.57738   -6.299259 C.3        1 UNL1     -0.0348
     7 C         3.05589   8.46957   -4.144393 C.2        1 UNL1     0.2441
     8 O         3.9712   9.280177   -4.185015 O.2        1 UNL1     -0.2702
     9 N         1.789255   8.826429   -3.649987 N.am        1 UNL1     -0.2772
     10 C         1.610754   8.325999   -2.380723 C.2        1 UNL1     0.1049
     11 C         1.215098   7.06848   -2.301192 C.2        1 UNL1     0.0801
     12 C         2.711271   8.161763   -0.140361 C.ar        1 UNL1     0.0753
     13 C         2.441413   6.757317   -0.197941 C.ar        1 UNL1     0.0305
     14 C         1.567615   6.187377   -1.221023 C.2        1 UNL1     0.0924
     15 N         0.752513   6.246268   -3.258538 N.pl3        1 UNL1     -0.3170
     16 C         0.29811   5.03977   -2.619682 C.3        1 UNL1     0.1275
     17 N         1.131879   4.939129   -1.365719 N.2        1 UNL1     -0.2557
     18 C         -1.134812   5.285264   -2.156899 C.3        1 UNL1     0.0016
     19 C         -1.966621   5.712435   -3.355735 C.3        1 UNL1     0.0026
     20 N         -1.913686   4.65977   -4.360784 N.3        1 UNL1     -0.3018
     21 C         -0.56939   4.309334   -4.823853 C.3        1 UNL1     0.0026
     22 C         0.247388   3.878889   -3.604228 C.3        1 UNL1     0.0016
     23 C         -2.902846   4.828351   -5.406626 C.3        1 UNL1     0.0012
     24 C         -3.568301   3.483905   -5.740381 C.3        1 UNL1     -0.0339
     25 C         -3.614639   2.559275   -4.512794 C.3        1 UNL1     -0.0615
     26 C         -4.953897   3.717545   -6.316847 C.3        1 UNL1     -0.0615
     27 C         3.445753   8.713249   0.906786 C.ar        1 UNL1     0.1347
     28 C         3.926351   7.96958   1.969816 C.ar        1 UNL1     0.0342
     29 C         3.690653   6.582134   1.866848 C.ar        1 UNL1     0.1435
     30 C         2.987685   6.010766   0.805436 C.ar        1 UNL1     0.0774
     31 O         4.000096   5.737982   2.875143 O.3        1 UNL1     -0.4436
     32 C         3.212804   4.564864   2.620509 C.3        1 UNL1     0.3143
     33 C         2.914376   4.602735   1.135343 C.2        1 UNL1     0.2504
     34 C         4.499278   8.522428   3.245047 C.3        1 UNL1     -0.0327
     35 O         4.055683   3.428584   2.847829 O.2        1 UNL1     -0.4528
     36 C         1.756024   0.644393   4.017418 C.3        1 UNL1     0.0854
     37 C         0.496529   0.02439   3.298535 C.3        1 UNL1     0.0236
     38 C         0.548273   -1.565647   3.096428 C.3        1 UNL1     0.1131
     39 C         1.823339   -2.232496   2.439322 C.3        1 UNL1     0.0200
     40 C         2.538312   -1.54703   1.097164 C.3        1 UNL1     0.0661
     41 C         1.736735   -1.061584   -0.316847 C.3        1 UNL1     0.0091
     42 C         2.100167   0.310025   -1.479606 C.3        1 UNL1     0.0661
     43 C         2.10694   9.024548   -1.185658 C.2        1 UNL1     0.2131
     44 O         1.923566   10.220451   -1.048079 O.2        1 UNL1     -0.2851
     45 O         3.702771   10.082016   0.863724 O.3        1 UNL1     -0.5056
     46 O         2.688963   3.677085   0.388204 O.2        1 UNL1     -0.2836
     47 C         4.484829   0.792545   -2.574311 C.3        1 UNL1     -0.0566
     48 O         1.961422   -0.530442   -2.693477 O.3        1 UNL1     -0.3909
     49 C         0.248778   -1.029298   -0.047707 C.3        1 UNL1     -0.0577
     50 O         3.482663   -0.566783   1.478003 O.3        1 UNL1     -0.3910
     51 O         2.836483   -0.234816   4.234286 O.3        1 UNL1     -0.3753
     52 C         -0.08027   0.982833   2.205997 C.3        1 UNL1     -0.0564
     53 O         -0.779098   -2.169469   2.741729 O.3        1 UNL1     -0.4608
     54 C         -0.972597   -3.206616   1.867193 C.2        1 UNL1     0.3042
     55 O         -0.206823   -3.592208   0.984727 O.2        1 UNL1     -0.2512
     56 C         -2.255619   -3.954031   2.095093 C.3        1 UNL1     0.0332
     57 C         2.778842   -2.719006   3.626124 C.3        1 UNL1     -0.0567
     58 C         1.889833   4.748252   3.400027 C.3        1 UNL1     0.0210
     59 C         3.028145   -0.625168   5.59324 C.3        1 UNL1     0.0372
     60 C         2.316013   1.860432   3.367171 C.2        1 UNL1     -0.0208
     61 C         3.579556   2.194501   3.101462 C.2        1 UNL1     0.0882
     62 H         3.356167   2.049785   -1.259096 H        1 UNL1     0.0365
     63 H         3.610518   3.893669   -2.09911 H        1 UNL1     0.0576
     64 H         3.028415   3.828051   -5.124606 H        1 UNL1     0.0615
     65 H         3.730059   6.139052   -3.143488 H        1 UNL1     0.0622
     66 H         1.381063   0.972191   4.997213 H        1 UNL1     0.0645
     67 H         -0.313088   0.124878   4.042163 H        1 UNL1     0.0362
     68 H         0.562343   -1.884602   4.149799 H        1 UNL1     0.0741
     69 H         1.557237   -3.220408   2.087714 H        1 UNL1     0.0359
     70 H         3.150825   -2.401159   0.750245 H        1 UNL1     0.0600
     71 H         1.828437   -1.987117   -0.918458 H        1 UNL1     0.0348
     72 H         3.030606   0.131096   -0.92141 H        1 UNL1     0.0602
     73 H         1.538157   2.568238   3.221569 H        1 UNL1     0.0628
     74 H         4.425587   1.509677   3.168439 H        1 UNL1     0.1022
     75 H         2.933988   6.831897   -7.091031 H        1 UNL1     0.0279
     76 H         1.614641   7.730512   -6.454546 H        1 UNL1     0.0279
     77 H         3.267079   8.448485   -6.625601 H        1 UNL1     0.0279
     78 H         1.065335   8.424831   -4.242217 H        1 UNL1     0.1553
     79 H         0.391679   6.564238   -4.139234 H        1 UNL1     0.1484
     80 H         -1.526774   4.366357   -1.704413 H        1 UNL1     0.0317
     81 H         -1.168337   6.056339   -1.379744 H        1 UNL1     0.0317
     82 H         -1.622417   6.671938   -3.769001 H        1 UNL1     0.0428
     83 H         -2.984077   5.883987   -3.003028 H        1 UNL1     0.0428
     84 H         -0.551192   3.463209   -5.517792 H        1 UNL1     0.0428
     85 H         -0.105531   5.128802   -5.39009 H        1 UNL1     0.0428
     86 H         1.175782   3.505243   -3.994689 H        1 UNL1     0.0317
     87 H         -0.207639   2.994546   -3.141644 H        1 UNL1     0.0317
     88 H         -3.67385   5.518325   -5.039497 H        1 UNL1     0.0429
     89 H         -2.462399   5.285296   -6.30216 H        1 UNL1     0.0429
     90 H         -2.994942   2.985861   -6.531219 H        1 UNL1     0.0308
     91 H         -2.765733   1.869091   -4.50245 H        1 UNL1     0.0233
     92 H         -3.613557   3.142979   -3.58927 H        1 UNL1     0.0233
     93 H         -4.523534   1.946068   -4.485903 H        1 UNL1     0.0233
     94 H         -5.441711   2.759719   -6.527661 H        1 UNL1     0.0233
     95 H         -5.572203   4.259216   -5.595562 H        1 UNL1     0.0233
     96 H         -4.907904   4.293652   -7.245262 H        1 UNL1     0.0233
     97 H         3.94826   8.186712   4.118492 H        1 UNL1     0.0280
     98 H         5.537846   8.204184   3.404278 H        1 UNL1     0.0280
     99 H         4.465778   9.623891   3.217648 H        1 UNL1     0.0280
     100 H         4.066809   10.386651   0.051137 H        1 UNL1     0.2922
     101 H         5.369961   1.38085   -2.333286 H        1 UNL1     0.0236
     102 H         4.508714   0.418031   -3.597127 H        1 UNL1     0.0236
     103 H         4.567061   -0.108131   -1.943269 H        1 UNL1     0.0236
     104 H         1.637769   -1.407676   -2.409433 H        1 UNL1     0.2098
     105 H         -0.358537   -1.482598   -0.827129 H        1 UNL1     0.0234
     106 H         -0.045489   -1.410367   0.930107 H        1 UNL1     0.0234
     107 H         0.0   0.0   0.0 H        1 UNL1     0.0234
     108 H         3.892555   -0.225528   0.659894 H        1 UNL1     0.2098
     109 H         -0.409804   1.942999   2.626949 H        1 UNL1     0.0234
     110 H         0.617138   1.164438   1.381141 H        1 UNL1     0.0234
     111 H         -0.964841   0.553408   1.717044 H        1 UNL1     0.0234
     112 H         -2.171187   -4.573046   2.993445 H        1 UNL1     0.0342
     113 H         -3.11289   -3.285689   2.16029 H        1 UNL1     0.0342
     114 H         -2.419557   -4.623178   1.239212 H        1 UNL1     0.0342
     115 H         3.313515   -3.643264   3.367166 H        1 UNL1     0.0234
     116 H         3.525333   -1.980851   3.926004 H        1 UNL1     0.0234
     117 H         2.230952   -3.035932   4.530179 H        1 UNL1     0.0234
     118 H         1.812324   4.053327   4.254473 H        1 UNL1     0.0309
     119 H         1.739583   5.772261   3.756442 H        1 UNL1     0.0309
     120 H         1.008857   4.505085   2.795993 H        1 UNL1     0.0309
     121 H         2.117234   -0.379495   6.13844 H        1 UNL1     0.0524
     122 H         3.194893   -1.71025   5.697305 H        1 UNL1     0.0524
     123 H         3.875043   -0.095727   6.020499 H        1 UNL1     0.0524
@<TRIPOS>BOND
     1     1     2    1
     2     1    42    1
     3     2     3    2
     4     3     4    1
     5     4     5    2
     6     5     7    1
     7     6    75    1
     8     6    76    1
     9     6    77    1
    10     7     9   am
    11     9    10    1
    12    10    11    2
    13    10    43    1
    14    11    14    1
    15    11    15    1
    16    12    13   ar
    17    12    27   ar
    18    12    43    1
    19    13    14    1
    20    13    30   ar
    21    14    17    2
    22    15    16    1
    23    16    17    1
    24    16    18    1
    25    16    22    1
    26    18    19    1
    27    19    20    1
    28    20    21    1
    29    21    22    1
    30    23    24    1
    31    23    88    1
    32    23    89    1
    33    24    25    1
    34    24    26    1
    35    24    90    1
    36    25    91    1
    37    25    92    1
    38    25    93    1
    39    26    94    1
    40    26    95    1
    41    26    96    1
    42    27    28   ar
    43    28    29   ar
    44    29    30   ar
    45    29    31    1
    46    30    33    1
    47    31    32    1
    48    32    33    1
    49    32    35    1
    50    34    97    1
    51    34    98    1
    52    34    99    1
    53    35    61    1
    54    36    37    1
    55    36    60    1
    56    37    38    1
    57    38    39    1
    58    39    40    1
    59    40    41    1
    60    41    42    1
    61    45   100    1
    62    47   101    1
    63    47   102    1
    64    47   103    1
    65    48   104    1
    66    49   105    1
    67    49   106    1
    68    49   107    1
    69    50   108    1
    70    51    59    1
    71    52   109    1
    72    52   110    1
    73    52   111    1
    74    53    54    1
    75    54    55    2
    76    54    56    1
    77    56   112    1
    78    56   113    1
    79    56   114    1
    80    57   115    1
    81    57   116    1
    82    57   117    1
    83    58   118    1
    84    58   119    1
    85    58   120    1
    86    59   121    1
    87    59   122    1
    88    59   123    1
    89    60    61    2
    90     1    47    1
    91     1    62    1
    92     2    63    1
    93     3    64    1
    94     4    65    1
    95     5     6    1
    96     7     8    2
    97     9    78    1
    98    15    79    1
    99    18    80    1
   100    18    81    1
   101    19    82    1
   102    19    83    1
   103    20    23    1
   104    21    84    1
   105    21    85    1
   106    22    86    1
   107    22    87    1
   108    27    45    1
   109    28    34    1
   110    32    58    1
   111    33    46    2
   112    36    51    1
   113    36    66    1
   114    37    52    1
   115    37    67    1
   116    38    53    1
   117    38    68    1
   118    42    48    1
   119    42    72    1
   120    43    44    2
   121    60    73    1
   122    61    74    1
   123    39    69    1
   124    39    57    1
   125    40    70    1
   126    40    50    1
   127    41    71    1
   128    41    49    1
