@<TRIPOS>MOLECULE
*****
 123 128 0 0 0
SMALL
GASTEIGER

@<TRIPOS>ATOM
     1 C         5.167796   1.744445   0.500385 C.3        1 UNL1     0.0009
     2 C         6.606398   2.549959   -0.347322 C.2        1 UNL1     -0.0787
     3 C         7.889294   2.451203   -1.011002 C.2        1 UNL1     -0.0649
     4 C         8.768786   3.686062   -1.764643 C.2        1 UNL1     -0.0542
     5 C         9.790532   3.978424   -2.701466 C.2        1 UNL1     0.0115
     6 C         10.919727   3.352595   -3.565515 C.3        1 UNL1     -0.0348
     7 C         9.887837   5.461869   -3.307198 C.2        1 UNL1     0.2441
     8 O         10.711646   6.282816   -2.927841 O.2        1 UNL1     -0.2702
     9 N         9.13966   5.669818   -4.479008 N.am        1 UNL1     -0.2772
     10 C         7.856691   6.057215   -4.167182 C.2        1 UNL1     0.1049
     11 C         7.00979   5.086239   -3.87703 C.2        1 UNL1     0.0801
     12 C         6.557062   7.664137   -2.757891 C.ar        1 UNL1     0.0753
     13 C         5.796533   6.536538   -2.312108 C.ar        1 UNL1     0.0305
     14 C         5.913654   5.231028   -2.957847 C.2        1 UNL1     0.0924
     15 N         7.131793   3.757247   -4.036472 N.pl3        1 UNL1     -0.3170
     16 C         5.861028   3.158785   -3.724614 C.3        1 UNL1     0.1275
     17 N         5.223663   4.114033   -2.745333 N.2        1 UNL1     -0.2557
     18 C         5.010279   3.218943   -4.989647 C.3        1 UNL1     0.0016
     19 C         5.766546   2.534821   -6.117311 C.3        1 UNL1     0.0026
     20 N         6.03515   1.156381   -5.731586 N.3        1 UNL1     -0.3018
     21 C         6.796381   0.994969   -4.491085 C.3        1 UNL1     0.0026
     22 C         6.016267   1.685538   -3.371072 C.3        1 UNL1     0.0016
     23 C         6.480922   0.33701   -6.840892 C.3        1 UNL1     0.0012
     24 C         5.325797   0.085066   -7.822709 C.3        1 UNL1     -0.0339
     25 C         5.344424   1.093119   -8.983545 C.3        1 UNL1     -0.0615
     26 C         5.372678   -1.347357   -8.325448 C.3        1 UNL1     -0.0615
     27 C         6.35236   8.931743   -2.218084 C.ar        1 UNL1     0.1347
     28 C         5.391918   9.201527   -1.259534 C.ar        1 UNL1     0.0342
     29 C         4.68886   8.06735   -0.800714 C.ar        1 UNL1     0.1435
     30 C         4.908279   6.785387   -1.306328 C.ar        1 UNL1     0.0774
     31 O         3.646556   8.181252   0.05113 O.3        1 UNL1     -0.4436
     32 C         2.924297   6.948968   -0.092713 C.3        1 UNL1     0.3143
     33 C         3.937803   5.955413   -0.623625 C.2        1 UNL1     0.2504
     34 C         4.945265   10.567744   -0.819021 C.3        1 UNL1     -0.0327
     35 O         2.561235   6.511966   1.222759 O.2        1 UNL1     -0.4528
     36 C         -0.682437   4.582085   0.819969 C.3        1 UNL1     0.0854
     37 C         -0.987118   3.32207   -0.078393 C.3        1 UNL1     0.0236
     38 C         -1.589783   2.061101   0.708053 C.3        1 UNL1     0.1131
     39 C         -0.866487   1.529157   2.010416 C.3        1 UNL1     0.0200
     40 C         0.79454   1.382498   2.054217 C.3        1 UNL1     0.0661
     41 C         1.755295   0.613509   0.886648 C.3        1 UNL1     0.0091
     42 C         3.464033   0.975167   0.325559 C.3        1 UNL1     0.0661
     43 C         7.508783   7.456262   -3.877389 C.2        1 UNL1     0.2131
     44 O         7.910422   8.354367   -4.594907 O.2        1 UNL1     -0.2851
     45 O         7.166052   9.966499   -2.674837 O.3        1 UNL1     -0.5056
     46 O         3.952785   4.751815   -0.493309 O.2        1 UNL1     -0.2836
     47 C         5.561544   1.314126   1.939054 C.3        1 UNL1     -0.0566
     48 O         3.911531   -0.436267   0.407501 O.3        1 UNL1     -0.3909
     49 C         0.922963   0.38197   -0.354765 C.3        1 UNL1     -0.0577
     50 O         1.394907   2.599805   2.448484 O.3        1 UNL1     -0.3910
     51 O         -0.808902   4.391934   2.211112 O.3        1 UNL1     -0.3753
     52 C         0.059094   3.16137   -1.22929 C.3        1 UNL1     -0.0564
     53 O         -2.191616   1.022878   -0.193176 O.3        1 UNL1     -0.4608
     54 C         -2.415332   -0.287099   0.14125 C.2        1 UNL1     0.3042
     55 O         -1.843096   -1.280287   -0.305923 O.2        1 UNL1     -0.2512
     56 C         -3.446571   -0.464958   1.219038 C.3        1 UNL1     0.0332
     57 C         -1.589111   2.198124   3.270762 C.3        1 UNL1     -0.0567
     58 C         1.851019   7.195204   -1.178517 C.3        1 UNL1     0.0210
     59 C         -1.161138   5.562802   2.946546 C.3        1 UNL1     0.0372
     60 C         0.647346   5.21038   0.591752 C.2        1 UNL1     -0.0208
     61 C         1.559164   5.644661   1.462805 C.2        1 UNL1     0.0882
     62 H         4.692387   2.728899   0.587277 H        1 UNL1     0.0365
     63 H         6.34068   3.603893   -0.242028 H        1 UNL1     0.0576
     64 H         8.346664   1.484138   -1.231695 H        1 UNL1     0.0615
     65 H         8.281751   4.601644   -1.418247 H        1 UNL1     0.0622
     66 H         -1.42609   5.32923   0.508841 H        1 UNL1     0.0645
     67 H         -1.851473   3.632252   -0.690959 H        1 UNL1     0.0362
     68 H         -2.537129   2.498467   1.058436 H        1 UNL1     0.0741
     69 H         -1.198995   0.518203   2.204882 H        1 UNL1     0.0359
     70 H         0.904456   0.721745   2.935344 H        1 UNL1     0.0600
     71 H         1.797511   -0.407853   1.313255 H        1 UNL1     0.0348
     72 H         3.356896   1.463056   1.305254 H        1 UNL1     0.0602
     73 H         0.767044   5.407959   -0.444531 H        1 UNL1     0.0628
     74 H         1.539754   5.433587   2.532529 H        1 UNL1     0.1022
     75 H         10.963227   2.247227   -3.412863 H        1 UNL1     0.0279
     76 H         10.807887   3.435884   -4.644229 H        1 UNL1     0.0279
     77 H         11.924476   3.656503   -3.237156 H        1 UNL1     0.0279
     78 H         9.077927   4.800117   -5.004257 H        1 UNL1     0.1553
     79 H         7.797772   3.329056   -4.65296 H        1 UNL1     0.1484
     80 H         4.04836   2.728572   -4.797253 H        1 UNL1     0.0317
     81 H         4.784796   4.255953   -5.260607 H        1 UNL1     0.0317
     82 H         6.69796   3.065601   -6.36359 H        1 UNL1     0.0428
     83 H         5.142867   2.590729   -7.010031 H        1 UNL1     0.0428
     84 H         6.91551   -0.048184   -4.182132 H        1 UNL1     0.0428
     85 H         7.826884   1.362357   -4.593101 H        1 UNL1     0.0428
     86 H         6.531061   1.434476   -2.462257 H        1 UNL1     0.0317
     87 H         5.036304   1.208504   -3.247746 H        1 UNL1     0.0317
     88 H         7.276007   0.879855   -7.36858 H        1 UNL1     0.0429
     89 H         6.915153   -0.607839   -6.489499 H        1 UNL1     0.0429
     90 H         4.372958   0.184272   -7.289353 H        1 UNL1     0.0308
     91 H         6.29237   1.054647   -9.528541 H        1 UNL1     0.0233
     92 H         4.52353   0.898206   -9.677629 H        1 UNL1     0.0233
     93 H         5.216196   2.127041   -8.640911 H        1 UNL1     0.0233
     94 H         4.676186   -1.477446   -9.160799 H        1 UNL1     0.0233
     95 H         6.377996   -1.584547   -8.684669 H        1 UNL1     0.0233
     96 H         5.103154   -2.055924   -7.537249 H        1 UNL1     0.0233
     97 H         4.150704   10.518205   -0.080477 H        1 UNL1     0.0280
     98 H         5.757639   11.137066   -0.348726 H        1 UNL1     0.0280
     99 H         4.573362   11.132863   -1.689323 H        1 UNL1     0.0280
     100 H         6.700035   10.717282   -2.998526 H        1 UNL1     0.2922
     101 H         4.698035   0.879441   2.442101 H        1 UNL1     0.0236
     102 H         6.010536   2.119362   2.519559 H        1 UNL1     0.0236
     103 H         6.318404   0.512031   1.938869 H        1 UNL1     0.0236
     104 H         4.329575   -0.562871   1.281675 H        1 UNL1     0.2098
     105 H         0.712467   1.281054   -0.928482 H        1 UNL1     0.0234
     106 H         1.292465   -0.406553   -1.010224 H        1 UNL1     0.0234
     107 H         0.0   -0.0   0.0 H        1 UNL1     0.0234
     108 H         1.195514   3.259188   1.756224 H        1 UNL1     0.2098
     109 H         1.083241   3.04707   -0.847491 H        1 UNL1     0.0234
     110 H         -0.172802   2.334685   -1.909407 H        1 UNL1     0.0234
     111 H         0.08192   4.04442   -1.881707 H        1 UNL1     0.0234
     112 H         -3.574114   -1.529006   1.440129 H        1 UNL1     0.0342
     113 H         -3.198142   0.094225   2.119838 H        1 UNL1     0.0342
     114 H         -4.405267   -0.081808   0.843188 H        1 UNL1     0.0342
     115 H         -2.653532   1.930382   3.320864 H        1 UNL1     0.0234
     116 H         -1.139284   1.936914   4.230696 H        1 UNL1     0.0234
     117 H         -1.648754   3.298482   3.210785 H        1 UNL1     0.0234
     118 H         0.949606   7.682548   -0.767474 H        1 UNL1     0.0309
     119 H         2.222137   7.783267   -2.023891 H        1 UNL1     0.0309
     120 H         1.462516   6.263665   -1.604435 H        1 UNL1     0.0309
     121 H         -0.361979   6.290828   2.809874 H        1 UNL1     0.0524
     122 H         -2.094556   6.021817   2.580386 H        1 UNL1     0.0524
     123 H         -1.275071   5.324666   4.000304 H        1 UNL1     0.0524
@<TRIPOS>BOND
     1     1     2    1
     2     1    42    1
     3     2     3    2
     4     3     4    1
     5     4     5    2
     6     5     7    1
     7     6    75    1
     8     6    76    1
     9     6    77    1
    10     7     9   am
    11     9    10    1
    12    10    11    2
    13    10    43    1
    14    11    14    1
    15    11    15    1
    16    12    13   ar
    17    12    27   ar
    18    12    43    1
    19    13    14    1
    20    13    30   ar
    21    14    17    2
    22    15    16    1
    23    16    17    1
    24    16    18    1
    25    16    22    1
    26    18    19    1
    27    19    20    1
    28    20    21    1
    29    21    22    1
    30    23    24    1
    31    23    88    1
    32    23    89    1
    33    24    25    1
    34    24    26    1
    35    24    90    1
    36    25    91    1
    37    25    92    1
    38    25    93    1
    39    26    94    1
    40    26    95    1
    41    26    96    1
    42    27    28   ar
    43    28    29   ar
    44    29    30   ar
    45    29    31    1
    46    30    33    1
    47    31    32    1
    48    32    33    1
    49    32    35    1
    50    34    97    1
    51    34    98    1
    52    34    99    1
    53    35    61    1
    54    36    37    1
    55    36    60    1
    56    37    38    1
    57    38    39    1
    58    39    40    1
    59    40    41    1
    60    41    42    1
    61    45   100    1
    62    47   101    1
    63    47   102    1
    64    47   103    1
    65    48   104    1
    66    49   105    1
    67    49   106    1
    68    49   107    1
    69    50   108    1
    70    51    59    1
    71    52   109    1
    72    52   110    1
    73    52   111    1
    74    53    54    1
    75    54    55    2
    76    54    56    1
    77    56   112    1
    78    56   113    1
    79    56   114    1
    80    57   115    1
    81    57   116    1
    82    57   117    1
    83    58   118    1
    84    58   119    1
    85    58   120    1
    86    59   121    1
    87    59   122    1
    88    59   123    1
    89    60    61    2
    90     1    47    1
    91     1    62    1
    92     2    63    1
    93     3    64    1
    94     4    65    1
    95     5     6    1
    96     7     8    2
    97     9    78    1
    98    15    79    1
    99    18    80    1
   100    18    81    1
   101    19    82    1
   102    19    83    1
   103    20    23    1
   104    21    84    1
   105    21    85    1
   106    22    86    1
   107    22    87    1
   108    27    45    1
   109    28    34    1
   110    32    58    1
   111    33    46    2
   112    36    51    1
   113    36    66    1
   114    37    52    1
   115    37    67    1
   116    38    53    1
   117    38    68    1
   118    42    48    1
   119    42    72    1
   120    43    44    2
   121    60    73    1
   122    61    74    1
   123    39    69    1
   124    39    57    1
   125    40    70    1
   126    40    50    1
   127    41    71    1
   128    41    49    1
