@<TRIPOS>MOLECULE
*****
 123 128 0 0 0
SMALL
GASTEIGER

@<TRIPOS>ATOM
     1 C         -1.04749   3.76525   1.642151 C.3        1 UNL1     0.0009
     2 C         -2.740315   4.508882   1.777771 C.2        1 UNL1     -0.0787
     3 C         -3.734208   5.460059   1.326678 C.2        1 UNL1     -0.0649
     4 C         -5.343412   5.602625   1.83313 C.2        1 UNL1     -0.0542
     5 C         -6.624703   6.107684   1.501035 C.2        1 UNL1     0.0115
     6 C         -7.397076   7.021668   0.510382 C.3        1 UNL1     -0.0348
     7 C         -7.911072   5.525682   2.264917 C.2        1 UNL1     0.2441
     8 O         -8.475887   6.125528   3.169182 O.2        1 UNL1     -0.2702
     9 N         -8.501903   4.405713   1.654393 N.am        1 UNL1     -0.2772
     10 C         -7.912857   3.246658   2.104881 C.2        1 UNL1     0.1049
     11 C         -6.787605   2.895966   1.509025 C.2        1 UNL1     0.0801
     12 C         -7.224296   2.053253   4.192704 C.ar        1 UNL1     0.0753
     13 C         -5.943383   1.880388   3.577897 C.ar        1 UNL1     0.0305
     14 C         -5.726142   2.181212   2.164616 C.2        1 UNL1     0.0924
     15 N         -6.220397   3.370084   0.386521 N.pl3        1 UNL1     -0.3170
     16 C         -5.092331   2.532428   0.076597 C.3        1 UNL1     0.1275
     17 N         -4.645999   1.990221   1.412458 N.2        1 UNL1     -0.2557
     18 C         -5.619742   1.336849   -0.710887 C.3        1 UNL1     0.0016
     19 C         -6.373609   1.850066   -1.927391 C.3        1 UNL1     0.0026
     20 N         -5.465703   2.651212   -2.73665 N.3        1 UNL1     -0.3018
     21 C         -4.85862   3.790948   -2.046129 C.3        1 UNL1     0.0026
     22 C         -4.102768   3.251957   -0.83037 C.3        1 UNL1     0.0016
     23 C         -5.990354   2.937085   -4.057128 C.3        1 UNL1     0.0012
     24 C         -6.012976   1.662404   -4.915285 C.3        1 UNL1     -0.0339
     25 C         -5.735625   1.975559   -6.394835 C.3        1 UNL1     -0.0615
     26 C         -5.027445   0.64636   -4.364682 C.3        1 UNL1     -0.0615
     27 C         -7.454523   1.651313   5.506309 C.ar        1 UNL1     0.1347
     28 C         -6.496572   1.030904   6.288276 C.ar        1 UNL1     0.0342
     29 C         -5.229159   0.915536   5.678751 C.ar        1 UNL1     0.1435
     30 C         -4.973867   1.346443   4.376305 C.ar        1 UNL1     0.0774
     31 O         -4.222177   0.236   6.269702 O.3        1 UNL1     -0.4436
     32 C         -3.312207   -0.065752   5.201165 C.3        1 UNL1     0.3143
     33 C         -3.596273   0.971886   4.134007 C.2        1 UNL1     0.2504
     34 C         -6.740114   0.349808   7.606189 C.3        1 UNL1     -0.0327
     35 O         -1.987495   0.186147   5.685868 O.2        1 UNL1     -0.4528
     36 C         0.277894   -2.223557   3.823229 C.3        1 UNL1     0.0854
     37 C         0.486284   -2.395994   2.269407 C.3        1 UNL1     0.0236
     38 C         2.006457   -2.273324   1.773654 C.3        1 UNL1     0.1131
     39 C         2.87868   -1.030047   2.216101 C.3        1 UNL1     0.0200
     40 C         2.232192   0.507436   2.190873 C.3        1 UNL1     0.0661
     41 C         1.404044   1.215928   0.890942 C.3        1 UNL1     0.0091
     42 C         0.033048   2.434756   0.875741 C.3        1 UNL1     0.0661
     43 C         -8.324736   2.592937   3.356024 C.2        1 UNL1     0.2131
     44 O         -9.504645   2.428745   3.608202 O.2        1 UNL1     -0.2851
     45 O         -8.716065   1.897043   6.044421 O.3        1 UNL1     -0.5056
     46 O         -2.847364   1.407622   3.288357 O.2        1 UNL1     -0.2836
     47 C         0.014077   4.728816   2.237631 C.3        1 UNL1     -0.0566
     48 O         0.665627   3.304417   -0.145361 O.3        1 UNL1     -0.3909
     49 C         1.045831   0.136452   -0.106008 C.3        1 UNL1     -0.0577
     50 O         1.560811   0.788735   3.402418 O.3        1 UNL1     -0.3910
     51 O         1.41106   -1.813927   4.555056 O.3        1 UNL1     -0.3753
     52 C         -0.705241   -1.797593   1.452625 C.3        1 UNL1     -0.0564
     53 O         2.225946   -2.78076   0.378426 O.3        1 UNL1     -0.4608
     54 C         3.074889   -2.227882   -0.544369 C.2        1 UNL1     0.3042
     55 O         2.903399   -1.19685   -1.193526 O.2        1 UNL1     -0.2512
     56 C         4.367269   -2.978125   -0.698003 C.3        1 UNL1     0.0332
     57 C         3.718119   -1.4645   3.50636 C.3        1 UNL1     -0.0567
     58 C         -3.715823   -1.45824   4.663019 C.3        1 UNL1     0.0210
     59 C         1.993972   -2.826599   5.373942 C.3        1 UNL1     0.0372
     60 C         -0.83524   -1.31504   4.211414 C.2        1 UNL1     -0.0208
     61 C         -0.883644   -0.351801   5.132595 C.2        1 UNL1     0.0882
     62 H         -1.313705   3.061361   2.439886 H        1 UNL1     0.0365
     63 H         -3.127769   3.975646   2.648408 H        1 UNL1     0.0576
     64 H         -3.562701   6.097982   0.456765 H        1 UNL1     0.0615
     65 H         -5.385256   4.996306   2.742036 H        1 UNL1     0.0622
     66 H         -0.012459   -3.223409   4.175416 H        1 UNL1     0.0645
     67 H         0.282112   -3.465661   2.088613 H        1 UNL1     0.0362
     68 H         2.441626   -3.136924   2.299339 H        1 UNL1     0.0741
     69 H         3.724512   -0.942615   1.547273 H        1 UNL1     0.0359
     70 H         3.161659   1.106018   2.244273 H        1 UNL1     0.0600
     71 H         2.246543   1.71691   0.375026 H        1 UNL1     0.0348
     72 H         0.495844   2.511301   1.870365 H        1 UNL1     0.0602
     73 H         -1.721882   -1.615134   3.710357 H        1 UNL1     0.0628
     74 H         -0.01199   0.052814   5.648099 H        1 UNL1     0.1022
     75 H         -6.868898   7.997431   0.38409 H        1 UNL1     0.0279
     76 H         -7.479915   6.665814   -0.514106 H        1 UNL1     0.0279
     77 H         -8.369332   7.350955   0.905337 H        1 UNL1     0.0279
     78 H         -8.35972   4.450279   0.64748 H        1 UNL1     0.1553
     79 H         -6.717851   3.892238   -0.311208 H        1 UNL1     0.1484
     80 H         -4.775667   0.700035   -1.002044 H        1 UNL1     0.0317
     81 H         -6.278672   0.719715   -0.090719 H        1 UNL1     0.0317
     82 H         -7.263672   2.429129   -1.640359 H        1 UNL1     0.0428
     83 H         -6.74259   0.981393   -2.473569 H        1 UNL1     0.0428
     84 H         -4.121257   4.328085   -2.65077 H        1 UNL1     0.0428
     85 H         -5.603017   4.557501   -1.790028 H        1 UNL1     0.0428
     86 H         -3.565069   4.090644   -0.428535 H        1 UNL1     0.0317
     87 H         -3.306005   2.571955   -1.155736 H        1 UNL1     0.0317
     88 H         -7.020084   3.300658   -3.944152 H        1 UNL1     0.0429
     89 H         -5.419554   3.73536   -4.548777 H        1 UNL1     0.0429
     90 H         -7.001261   1.19406   -4.836803 H        1 UNL1     0.0308
     91 H         -4.883015   2.652318   -6.505087 H        1 UNL1     0.0233
     92 H         -5.539482   1.057575   -6.953799 H        1 UNL1     0.0233
     93 H         -6.589454   2.456755   -6.887037 H        1 UNL1     0.0233
     94 H         -4.748299   -0.070187   -5.144729 H        1 UNL1     0.0233
     95 H         -4.117315   1.151976   -4.030052 H        1 UNL1     0.0233
     96 H         -5.453378   0.092693   -3.523252 H        1 UNL1     0.0233
     97 H         -6.119473   -0.532693   7.729592 H        1 UNL1     0.0280
     98 H         -6.507948   1.00203   8.458223 H        1 UNL1     0.0280
     99 H         -7.796344   0.041494   7.672642 H        1 UNL1     0.0280
     100 H         -9.028778   2.776373   5.923539 H        1 UNL1     0.2922
     101 H         0.335333   4.36437   3.213146 H        1 UNL1     0.0236
     102 H         -0.321869   5.764419   2.278261 H        1 UNL1     0.0236
     103 H         0.935134   4.755741   1.631724 H        1 UNL1     0.0236
     104 H         1.466124   2.846149   -0.468109 H        1 UNL1     0.2098
     105 H         1.243812   0.398582   -1.142301 H        1 UNL1     0.0234
     106 H         1.457519   -0.847055   0.120162 H        1 UNL1     0.0234
     107 H         0.0   -0.0   0.0 H        1 UNL1     0.0234
     108 H         1.234249   1.707433   3.346581 H        1 UNL1     0.2098
     109 H         -1.659832   -2.287732   1.68976 H        1 UNL1     0.0234
     110 H         -0.809464   -0.714073   1.574546 H        1 UNL1     0.0234
     111 H         -0.562796   -1.931398   0.371999 H        1 UNL1     0.0234
     112 H         4.999884   -2.481603   -1.440034 H        1 UNL1     0.0342
     113 H         4.891188   -3.089799   0.250091 H        1 UNL1     0.0342
     114 H         4.136955   -3.985336   -1.071694 H        1 UNL1     0.0342
     115 H         4.706761   -0.985766   3.530613 H        1 UNL1     0.0234
     116 H         3.222629   -1.242849   4.453677 H        1 UNL1     0.0234
     117 H         3.99812   -2.531987   3.510075 H        1 UNL1     0.0234
     118 H         -2.964116   -2.229956   4.904675 H        1 UNL1     0.0309
     119 H         -4.696293   -1.78912   5.019948 H        1 UNL1     0.0309
     120 H         -3.765529   -1.487886   3.569055 H        1 UNL1     0.0309
     121 H         1.25801   -3.105304   6.127626 H        1 UNL1     0.0524
     122 H         2.243361   -3.73548   4.801422 H        1 UNL1     0.0524
     123 H         2.895268   -2.451829   5.850708 H        1 UNL1     0.0524
@<TRIPOS>BOND
     1     1     2    1
     2     1    42    1
     3     2     3    2
     4     3     4    1
     5     4     5    2
     6     5     7    1
     7     6    75    1
     8     6    76    1
     9     6    77    1
    10     7     9   am
    11     9    10    1
    12    10    11    2
    13    10    43    1
    14    11    14    1
    15    11    15    1
    16    12    13   ar
    17    12    27   ar
    18    12    43    1
    19    13    14    1
    20    13    30   ar
    21    14    17    2
    22    15    16    1
    23    16    17    1
    24    16    18    1
    25    16    22    1
    26    18    19    1
    27    19    20    1
    28    20    21    1
    29    21    22    1
    30    23    24    1
    31    23    88    1
    32    23    89    1
    33    24    25    1
    34    24    26    1
    35    24    90    1
    36    25    91    1
    37    25    92    1
    38    25    93    1
    39    26    94    1
    40    26    95    1
    41    26    96    1
    42    27    28   ar
    43    28    29   ar
    44    29    30   ar
    45    29    31    1
    46    30    33    1
    47    31    32    1
    48    32    33    1
    49    32    35    1
    50    34    97    1
    51    34    98    1
    52    34    99    1
    53    35    61    1
    54    36    37    1
    55    36    60    1
    56    37    38    1
    57    38    39    1
    58    39    40    1
    59    40    41    1
    60    41    42    1
    61    45   100    1
    62    47   101    1
    63    47   102    1
    64    47   103    1
    65    48   104    1
    66    49   105    1
    67    49   106    1
    68    49   107    1
    69    50   108    1
    70    51    59    1
    71    52   109    1
    72    52   110    1
    73    52   111    1
    74    53    54    1
    75    54    55    2
    76    54    56    1
    77    56   112    1
    78    56   113    1
    79    56   114    1
    80    57   115    1
    81    57   116    1
    82    57   117    1
    83    58   118    1
    84    58   119    1
    85    58   120    1
    86    59   121    1
    87    59   122    1
    88    59   123    1
    89    60    61    2
    90     1    47    1
    91     1    62    1
    92     2    63    1
    93     3    64    1
    94     4    65    1
    95     5     6    1
    96     7     8    2
    97     9    78    1
    98    15    79    1
    99    18    80    1
   100    18    81    1
   101    19    82    1
   102    19    83    1
   103    20    23    1
   104    21    84    1
   105    21    85    1
   106    22    86    1
   107    22    87    1
   108    27    45    1
   109    28    34    1
   110    32    58    1
   111    33    46    2
   112    36    51    1
   113    36    66    1
   114    37    52    1
   115    37    67    1
   116    38    53    1
   117    38    68    1
   118    42    48    1
   119    42    72    1
   120    43    44    2
   121    60    73    1
   122    61    74    1
   123    39    69    1
   124    39    57    1
   125    40    70    1
   126    40    50    1
   127    41    71    1
   128    41    49    1
