@<TRIPOS>MOLECULE
*****
 123 128 0 0 0
SMALL
GASTEIGER

@<TRIPOS>ATOM
     1 C         2.129828   2.272589   4.506764 C.3        1 UNL1     0.0009
     2 C         3.460678   2.171809   5.793512 C.2        1 UNL1     -0.0787
     3 C         3.890466   1.823468   7.131416 C.2        1 UNL1     -0.0649
     4 C         5.460666   1.862883   7.7633 C.2        1 UNL1     -0.0542
     5 C         6.312904   1.379334   8.786505 C.2        1 UNL1     0.0115
     6 C         6.346498   0.601378   10.130744 C.3        1 UNL1     -0.0348
     7 C         7.902409   1.482808   8.587117 C.2        1 UNL1     0.2441
     8 O         8.586987   2.338347   9.131111 O.2        1 UNL1     -0.2702
     9 N         8.490566   0.372042   7.957496 N.am        1 UNL1     -0.2772
     10 C         8.473023   0.529771   6.590699 C.2        1 UNL1     0.1049
     11 C         7.349524   0.197968   5.980881 C.2        1 UNL1     0.0801
     12 C         9.022191   2.160322   4.77492 C.ar        1 UNL1     0.0753
     13 C         7.705486   1.919546   4.268047 C.ar        1 UNL1     0.0305
     14 C         6.87543   0.831653   4.780442 C.2        1 UNL1     0.0924
     15 N         6.279116   -0.469236   6.445201 N.pl3        1 UNL1     -0.3170
     16 C         5.400733   -0.718993   5.333302 C.3        1 UNL1     0.1275
     17 N         5.685662   0.40464   4.366873 N.2        1 UNL1     -0.2557
     18 C         5.884627   -1.995852   4.652728 C.3        1 UNL1     0.0016
     19 C         5.924257   -3.111868   5.684487 C.3        1 UNL1     0.0026
     20 N         4.587828   -3.286407   6.236324 N.3        1 UNL1     -0.3018
     21 C         4.011429   -2.09279   6.858747 C.3        1 UNL1     0.0026
     22 C         3.976914   -0.986029   5.803388 C.3        1 UNL1     0.0016
     23 C         4.448685   -4.509955   7.000663 C.3        1 UNL1     0.0012
     24 C         4.484272   -5.732946   6.070726 C.3        1 UNL1     -0.0339
     25 C         4.634611   -5.315785   4.598506 C.3        1 UNL1     -0.0615
     26 C         5.591063   -6.680782   6.498978 C.3        1 UNL1     -0.0615
     27 C         9.852442   3.119877   4.200414 C.ar        1 UNL1     0.1347
     28 C         9.492646   3.869813   3.094885 C.ar        1 UNL1     0.0342
     29 C         8.173907   3.6503   2.643328 C.ar        1 UNL1     0.1435
     30 C         7.318045   2.718163   3.23141 C.ar        1 UNL1     0.0774
     31 O         7.712357   4.223372   1.510382 O.3        1 UNL1     -0.4436
     32 C         6.577938   3.42672   1.137134 C.3        1 UNL1     0.3143
     33 C         6.119145   2.764792   2.420712 C.2        1 UNL1     0.2504
     34 C         10.413681   4.730142   2.275355 C.3        1 UNL1     -0.0327
     35 O         5.537779   4.327569   0.737393 O.2        1 UNL1     -0.4528
     36 C         3.487441   2.464129   -1.857177 C.3        1 UNL1     0.0854
     37 C         2.741078   1.080442   -1.731184 C.3        1 UNL1     0.0236
     38 C         1.179566   1.119285   -2.094384 C.3        1 UNL1     0.1131
     39 C         0.244432   2.205122   -1.424495 C.3        1 UNL1     0.0200
     40 C         0.374741   2.543722   0.203635 C.3        1 UNL1     0.0661
     41 C         0.392486   1.401596   1.457766 C.3        1 UNL1     0.0091
     42 C         1.25012   1.427933   3.079239 C.3        1 UNL1     0.0661
     43 C         9.507728   1.292132   5.876173 C.2        1 UNL1     0.2131
     44 O         10.686663   1.1195   6.12727 O.2        1 UNL1     -0.2851
     45 O         11.101778   3.323892   4.782629 O.3        1 UNL1     -0.5056
     46 O         5.009089   2.382358   2.7163 O.2        1 UNL1     -0.2836
     47 C         1.166541   3.449456   4.818282 C.3        1 UNL1     -0.0566
     48 O         0.05263   1.0103   3.847819 O.3        1 UNL1     -0.3909
     49 C         0.613446   0.028235   0.864006 C.3        1 UNL1     -0.0577
     50 O         1.362   3.528779   0.43321 O.3        1 UNL1     -0.3910
     51 O         2.668685   3.58591   -2.099409 O.3        1 UNL1     -0.3753
     52 C         3.297996   0.224686   -0.546923 C.3        1 UNL1     -0.0564
     53 O         0.578797   -0.239229   -2.308491 O.3        1 UNL1     -0.4608
     54 C         -0.681785   -0.61994   -1.929121 C.2        1 UNL1     0.3042
     55 O         -0.993753   -1.306739   -0.957101 O.2        1 UNL1     -0.2512
     56 C         -1.767648   -0.060775   -2.803736 C.3        1 UNL1     0.0332
     57 C         0.136986   3.439302   -2.436143 C.3        1 UNL1     -0.0567
     58 C         7.106071   2.337182   0.175098 C.3        1 UNL1     0.0210
     59 C         2.760913   4.121622   -3.418641 C.3        1 UNL1     0.0372
     60 C         4.363887   2.812979   -0.705958 C.2        1 UNL1     -0.0208
     61 C         4.501728   3.960936   -0.041173 C.2        1 UNL1     0.0882
     62 H         2.872329   2.655591   3.796331 H        1 UNL1     0.0365
     63 H         4.290806   2.645533   5.265361 H        1 UNL1     0.0576
     64 H         3.220862   1.325635   7.836327 H        1 UNL1     0.0615
     65 H         6.023208   2.443845   7.027424 H        1 UNL1     0.0622
     66 H         4.157823   2.338659   -2.719089 H        1 UNL1     0.0645
     67 H         3.145521   0.480775   -2.565083 H        1 UNL1     0.0362
     68 H         1.244549   1.40478   -3.155417 H        1 UNL1     0.0741
     69 H         -0.784389   1.883973   -1.518293 H        1 UNL1     0.0359
     70 H         -0.584891   3.070731   0.3662 H        1 UNL1     0.0600
     71 H         -0.687921   1.362523   1.698912 H        1 UNL1     0.0348
     72 H         1.214722   2.472705   2.737899 H        1 UNL1     0.0602
     73 H         5.027021   2.006157   -0.5148 H        1 UNL1     0.0628
     74 H         3.82843   4.813463   -0.136594 H        1 UNL1     0.1022
     75 H         5.563258   0.987474   10.826804 H        1 UNL1     0.0279
     76 H         6.114584   -0.460218   10.08281 H        1 UNL1     0.0279
     77 H         7.26277   0.790766   10.708914 H        1 UNL1     0.0279
     78 H         7.957297   -0.467005   8.175902 H        1 UNL1     0.1553
     79 H         6.295704   -1.047024   7.265456 H        1 UNL1     0.1484
     80 H         5.206839   -2.239012   3.825539 H        1 UNL1     0.0317
     81 H         6.877384   -1.852657   4.212752 H        1 UNL1     0.0317
     82 H         6.656743   -2.906104   6.478866 H        1 UNL1     0.0428
     83 H         6.273603   -4.012401   5.178476 H        1 UNL1     0.0428
     84 H         2.978224   -2.228103   7.193394 H        1 UNL1     0.0428
     85 H         4.552076   -1.80609   7.771337 H        1 UNL1     0.0428
     86 H         3.431199   -0.176139   6.250894 H        1 UNL1     0.0317
     87 H         3.339107   -1.288549   4.963875 H        1 UNL1     0.0317
     88 H         5.294844   -4.575704   7.697073 H        1 UNL1     0.0429
     89 H         3.533517   -4.499723   7.606581 H        1 UNL1     0.0429
     90 H         3.549319   -6.295079   6.180644 H        1 UNL1     0.0308
     91 H         5.381881   -5.928781   4.085743 H        1 UNL1     0.0233
     92 H         3.680128   -5.400211   4.073679 H        1 UNL1     0.0233
     93 H         4.951549   -4.271394   4.490647 H        1 UNL1     0.0233
     94 H         5.881502   -7.325004   5.662044 H        1 UNL1     0.0233
     95 H         6.472167   -6.111213   6.807536 H        1 UNL1     0.0233
     96 H         5.272775   -7.316382   7.330045 H        1 UNL1     0.0233
     97 H         10.437804   4.424086   1.233733 H        1 UNL1     0.0280
     98 H         10.102766   5.783033   2.272098 H        1 UNL1     0.0280
     99 H         11.437314   4.663552   2.678885 H        1 UNL1     0.0280
     100 H         11.084422   3.439218   5.71645 H        1 UNL1     0.2922
     101 H         1.369976   4.279847   4.142471 H        1 UNL1     0.0236
     102 H         1.189776   3.757339   5.863104 H        1 UNL1     0.0236
     103 H         0.113332   3.184355   4.626797 H        1 UNL1     0.0236
     104 H         -0.722109   1.45479   3.451362 H        1 UNL1     0.2098
     105 H         1.636437   -0.166981   0.552251 H        1 UNL1     0.0234
     106 H         0.239832   -0.795987   1.471458 H        1 UNL1     0.0234
     107 H         0.0   -0.0   0.0 H        1 UNL1     0.0234
     108 H         1.559122   3.524545   1.38971 H        1 UNL1     0.2098
     109 H         4.363919   -0.01254   -0.670381 H        1 UNL1     0.0234
     110 H         3.136838   0.68841   0.432225 H        1 UNL1     0.0234
     111 H         2.784953   -0.743265   -0.47073 H        1 UNL1     0.0234
     112 H         -2.745869   -0.384369   -2.43534 H        1 UNL1     0.0342
     113 H         -1.716938   1.024591   -2.876216 H        1 UNL1     0.0342
     114 H         -1.637168   -0.468417   -3.815648 H        1 UNL1     0.0342
     115 H         -0.846085   3.927025   -2.382414 H        1 UNL1     0.0234
     116 H         0.894682   4.209504   -2.278871 H        1 UNL1     0.0234
     117 H         0.16938   3.14156   -3.49833 H        1 UNL1     0.0234
     118 H         6.756352   2.493519   -0.860403 H        1 UNL1     0.0309
     119 H         8.197658   2.255707   0.176006 H        1 UNL1     0.0309
     120 H         6.727306   1.339255   0.421643 H        1 UNL1     0.0309
     121 H         2.489676   5.175677   -3.366158 H        1 UNL1     0.0524
     122 H         3.784827   4.062092   -3.823725 H        1 UNL1     0.0524
     123 H         2.086215   3.593773   -4.086662 H        1 UNL1     0.0524
@<TRIPOS>BOND
     1     1     2    1
     2     1    42    1
     3     2     3    2
     4     3     4    1
     5     4     5    2
     6     5     7    1
     7     6    75    1
     8     6    76    1
     9     6    77    1
    10     7     9   am
    11     9    10    1
    12    10    11    2
    13    10    43    1
    14    11    14    1
    15    11    15    1
    16    12    13   ar
    17    12    27   ar
    18    12    43    1
    19    13    14    1
    20    13    30   ar
    21    14    17    2
    22    15    16    1
    23    16    17    1
    24    16    18    1
    25    16    22    1
    26    18    19    1
    27    19    20    1
    28    20    21    1
    29    21    22    1
    30    23    24    1
    31    23    88    1
    32    23    89    1
    33    24    25    1
    34    24    26    1
    35    24    90    1
    36    25    91    1
    37    25    92    1
    38    25    93    1
    39    26    94    1
    40    26    95    1
    41    26    96    1
    42    27    28   ar
    43    28    29   ar
    44    29    30   ar
    45    29    31    1
    46    30    33    1
    47    31    32    1
    48    32    33    1
    49    32    35    1
    50    34    97    1
    51    34    98    1
    52    34    99    1
    53    35    61    1
    54    36    37    1
    55    36    60    1
    56    37    38    1
    57    38    39    1
    58    39    40    1
    59    40    41    1
    60    41    42    1
    61    45   100    1
    62    47   101    1
    63    47   102    1
    64    47   103    1
    65    48   104    1
    66    49   105    1
    67    49   106    1
    68    49   107    1
    69    50   108    1
    70    51    59    1
    71    52   109    1
    72    52   110    1
    73    52   111    1
    74    53    54    1
    75    54    55    2
    76    54    56    1
    77    56   112    1
    78    56   113    1
    79    56   114    1
    80    57   115    1
    81    57   116    1
    82    57   117    1
    83    58   118    1
    84    58   119    1
    85    58   120    1
    86    59   121    1
    87    59   122    1
    88    59   123    1
    89    60    61    2
    90     1    47    1
    91     1    62    1
    92     2    63    1
    93     3    64    1
    94     4    65    1
    95     5     6    1
    96     7     8    2
    97     9    78    1
    98    15    79    1
    99    18    80    1
   100    18    81    1
   101    19    82    1
   102    19    83    1
   103    20    23    1
   104    21    84    1
   105    21    85    1
   106    22    86    1
   107    22    87    1
   108    27    45    1
   109    28    34    1
   110    32    58    1
   111    33    46    2
   112    36    51    1
   113    36    66    1
   114    37    52    1
   115    37    67    1
   116    38    53    1
   117    38    68    1
   118    42    48    1
   119    42    72    1
   120    43    44    2
   121    60    73    1
   122    61    74    1
   123    39    69    1
   124    39    57    1
   125    40    70    1
   126    40    50    1
   127    41    71    1
   128    41    49    1
