@<TRIPOS>MOLECULE
*****
 123 128 0 0 0
SMALL
GASTEIGER

@<TRIPOS>ATOM
     1 C         3.280956   3.113749   -1.811699 C.3        1 UNL1     0.0009
     2 C         3.519211   3.929477   -3.459383 C.2        1 UNL1     -0.0787
     3 C         4.300817   4.126762   -4.66197 C.2        1 UNL1     -0.0649
     4 C         3.888875   5.028246   -6.034554 C.2        1 UNL1     -0.0542
     5 C         4.155099   5.235345   -7.410531 C.2        1 UNL1     0.0115
     6 C         5.127426   4.881909   -8.569404 C.3        1 UNL1     -0.0348
     7 C         3.072504   6.016162   -8.302329 C.2        1 UNL1     0.2441
     8 O         3.200237   7.188096   -8.629103 O.2        1 UNL1     -0.2702
     9 N         2.100125   5.195812   -8.900371 N.am        1 UNL1     -0.2772
     10 C         1.032144   5.019539   -8.050861 C.2        1 UNL1     0.1049
     11 C         1.167133   4.079019   -7.13357 C.2        1 UNL1     0.0801
     12 C         -0.566984   6.269735   -6.588967 C.ar        1 UNL1     0.0753
     13 C         -0.22593   5.340671   -5.55498 C.ar        1 UNL1     0.0305
     14 C         0.553103   4.136549   -5.834711 C.2        1 UNL1     0.0924
     15 N         2.095098   3.113823   -7.01607 N.pl3        1 UNL1     -0.3170
     16 C         1.692584   2.245763   -5.941496 C.3        1 UNL1     0.1275
     17 N         0.87389   3.127219   -5.030178 N.2        1 UNL1     -0.2557
     18 C         0.722387   1.223299   -6.525438 C.3        1 UNL1     0.0016
     19 C         1.403546   0.513231   -7.684495 C.3        1 UNL1     0.0026
     20 N         2.612124   -0.13307   -7.191887 N.3        1 UNL1     -0.3018
     21 C         3.580926   0.762213   -6.556073 C.3        1 UNL1     0.0026
     22 C         2.876827   1.461469   -5.391951 C.3        1 UNL1     0.0016
     23 C         3.17217   -1.077586   -8.137868 C.3        1 UNL1     0.0012
     24 C         4.118489   -0.363526   -9.115802 C.3        1 UNL1     -0.0339
     25 C         3.517391   0.961048   -9.61404 C.3        1 UNL1     -0.0615
     26 C         5.47547   -0.152571   -8.467049 C.3        1 UNL1     -0.0615
     27 C         -1.410019   7.350046   -6.339288 C.ar        1 UNL1     0.1347
     28 C         -2.00237   7.581337   -5.110599 C.ar        1 UNL1     0.0342
     29 C         -1.613444   6.681856   -4.095298 C.ar        1 UNL1     0.1435
     30 C         -0.741464   5.616219   -4.321767 C.ar        1 UNL1     0.0774
     31 O         -2.187403   6.708178   -2.872644 O.3        1 UNL1     -0.4436
     32 C         -1.907431   5.4163   -2.312699 C.3        1 UNL1     0.3143
     33 C         -0.681613   4.920854   -3.053047 C.2        1 UNL1     0.2504
     34 C         -3.106067   8.564165   -4.834919 C.3        1 UNL1     -0.0327
     35 O         -1.517607   5.618612   -0.948749 O.2        1 UNL1     -0.4528
     36 C         -2.597155   2.493966   0.916528 C.3        1 UNL1     0.0854
     37 C         -2.209541   0.989036   0.64734 C.3        1 UNL1     0.0236
     38 C         -1.57873   0.218376   1.904283 C.3        1 UNL1     0.1131
     39 C         -0.372896   0.865548   2.697631 C.3        1 UNL1     0.0200
     40 C         0.892822   1.57792   1.877312 C.3        1 UNL1     0.0661
     41 C         1.762226   0.884687   0.596228 C.3        1 UNL1     0.0091
     42 C         2.560861   1.664589   -0.859566 C.3        1 UNL1     0.0661
     43 C         -0.064948   5.994283   -7.958035 C.2        1 UNL1     0.2131
     44 O         -0.57548   6.448043   -8.9661 O.2        1 UNL1     -0.2851
     45 O         -1.655125   8.233089   -7.388856 O.3        1 UNL1     -0.5056
     46 O         0.165682   4.144151   -2.67268 O.2        1 UNL1     -0.2836
     47 C         4.226069   3.746409   -0.755061 C.3        1 UNL1     -0.0566
     48 O         3.834821   0.922206   -0.701426 O.3        1 UNL1     -0.3909
     49 C         1.005541   -0.323097   0.090088 C.3        1 UNL1     -0.0577
     50 O         0.604864   2.931376   1.589284 O.3        1 UNL1     -0.3910
     51 O         -2.186917   3.023365   2.15704 O.3        1 UNL1     -0.3753
     52 C         -1.681549   0.775749   -0.808916 C.3        1 UNL1     -0.0564
     53 O         -1.546536   -1.273026   1.73994 O.3        1 UNL1     -0.4608
     54 C         -0.54343   -2.099375   2.174515 C.2        1 UNL1     0.3042
     55 O         0.343624   -2.617322   1.497239 O.2        1 UNL1     -0.2512
     56 C         -0.54494   -2.316828   3.660929 C.3        1 UNL1     0.0332
     57 C         -0.985097   1.650048   3.949807 C.3        1 UNL1     -0.0567
     58 C         -3.108666   4.512551   -2.675744 C.3        1 UNL1     0.0210
     59 C         -3.239755   3.2328   3.097005 C.3        1 UNL1     0.0372
     60 C         -2.151097   3.454878   -0.128863 C.2        1 UNL1     -0.0208
     61 C         -1.573104   4.65125   -0.013271 C.2        1 UNL1     0.0882
     62 H         2.317195   3.628564   -1.717677 H        1 UNL1     0.0365
     63 H         2.660034   4.603194   -3.479149 H        1 UNL1     0.0576
     64 H         5.204698   3.545966   -4.858907 H        1 UNL1     0.0615
     65 H         3.032225   5.623894   -5.707693 H        1 UNL1     0.0622
     66 H         -3.695819   2.505486   0.887321 H        1 UNL1     0.0645
     67 H         -3.181554   0.476736   0.541038 H        1 UNL1     0.0362
     68 H         -2.436075   0.25784   2.593431 H        1 UNL1     0.0741
     69 H         0.121261   0.092601   3.271015 H        1 UNL1     0.0359
     70 H         1.644993   1.621642   2.688106 H        1 UNL1     0.0600
     71 H         2.586177   0.404227   1.159451 H        1 UNL1     0.0348
     72 H         2.422825   2.468788   -0.122324 H        1 UNL1     0.0602
     73 H         -2.476217   3.112276   -1.079741 H        1 UNL1     0.0628
     74 H         -1.160247   5.049615   0.914141 H        1 UNL1     0.1022
     75 H         6.005164   5.572277   -8.569011 H        1 UNL1     0.0279
     76 H         5.599363   3.902935   -8.525195 H        1 UNL1     0.0279
     77 H         4.696256   5.079986   -9.561653 H        1 UNL1     0.0279
     78 H         2.496417   4.277399   -9.088908 H        1 UNL1     0.1553
     79 H         2.679387   2.807905   -7.772346 H        1 UNL1     0.1484
     80 H         0.430931   0.517037   -5.738664 H        1 UNL1     0.0317
     81 H         -0.197996   1.708344   -6.867895 H        1 UNL1     0.0317
     82 H         1.632447   1.205461   -8.508106 H        1 UNL1     0.0428
     83 H         0.693692   -0.209924   -8.087242 H        1 UNL1     0.0428
     84 H         4.441515   0.241806   -6.12436 H        1 UNL1     0.0428
     85 H         4.026219   1.461265   -7.277431 H        1 UNL1     0.0428
     86 H         3.645228   2.002901   -4.871952 H        1 UNL1     0.0317
     87 H         2.545475   0.720063   -4.654646 H        1 UNL1     0.0317
     88 H         3.748822   -1.823325   -7.57516 H        1 UNL1     0.0429
     89 H         2.383065   -1.619522   -8.674891 H        1 UNL1     0.0429
     90 H         4.297788   -1.012891   -9.980898 H        1 UNL1     0.0308
     91 H         2.461468   1.046443   -9.340477 H        1 UNL1     0.0233
     92 H         4.06447   1.812505   -9.20254 H        1 UNL1     0.0233
     93 H         3.572455   1.060493   -10.704872 H        1 UNL1     0.0233
     94 H         5.626589   0.90918   -8.24415 H        1 UNL1     0.0233
     95 H         5.529386   -0.705757   -7.52522 H        1 UNL1     0.0233
     96 H         6.286329   -0.487411   -9.12001 H        1 UNL1     0.0233
     97 H         -2.76093   9.591997   -4.895514 H        1 UNL1     0.0280
     98 H         -3.926306   8.479353   -5.559675 H        1 UNL1     0.0280
     99 H         -3.507762   8.393637   -3.822665 H        1 UNL1     0.0280
     100 H         -2.380647   7.99547   -7.939109 H        1 UNL1     0.2922
     101 H         3.855405   3.529476   0.24654 H        1 UNL1     0.0236
     102 H         4.388511   4.812663   -0.909008 H        1 UNL1     0.0236
     103 H         5.234828   3.301616   -0.782586 H        1 UNL1     0.0236
     104 H         4.506645   1.368339   -1.253321 H        1 UNL1     0.2098
     105 H         1.329018   -0.679695   -0.884598 H        1 UNL1     0.0234
     106 H         0.946872   -1.152087   0.795255 H        1 UNL1     0.0234
     107 H         -0.0   0.0   0.0 H        1 UNL1     0.0234
     108 H         -0.110116   3.210697   2.193065 H        1 UNL1     0.2098
     109 H         -2.433004   1.038574   -1.566511 H        1 UNL1     0.0234
     110 H         -0.751015   1.316362   -1.012844 H        1 UNL1     0.0234
     111 H         -1.425301   -0.275466   -0.996611 H        1 UNL1     0.0234
     112 H         -1.568019   -2.483008   4.011697 H        1 UNL1     0.0342
     113 H         0.107235   -3.137678   3.955406 H        1 UNL1     0.0342
     114 H         -0.168268   -1.4035   4.141674 H        1 UNL1     0.0342
     115 H         -0.205956   1.952031   4.663202 H        1 UNL1     0.0234
     116 H         -1.548507   2.545595   3.680337 H        1 UNL1     0.0234
     117 H         -1.628713   1.022613   4.590141 H        1 UNL1     0.0234
     118 H         -4.066231   5.0609   -2.638468 H        1 UNL1     0.0309
     119 H         -3.006877   4.035804   -3.655822 H        1 UNL1     0.0309
     120 H         -3.25523   3.699204   -1.956653 H        1 UNL1     0.0309
     121 H         -2.93806   4.048349   3.753676 H        1 UNL1     0.0524
     122 H         -4.182845   3.530795   2.609339 H        1 UNL1     0.0524
     123 H         -3.412079   2.329757   3.675722 H        1 UNL1     0.0524
@<TRIPOS>BOND
     1     1     2    1
     2     1    42    1
     3     2     3    2
     4     3     4    1
     5     4     5    2
     6     5     7    1
     7     6    75    1
     8     6    76    1
     9     6    77    1
    10     7     9   am
    11     9    10    1
    12    10    11    2
    13    10    43    1
    14    11    14    1
    15    11    15    1
    16    12    13   ar
    17    12    27   ar
    18    12    43    1
    19    13    14    1
    20    13    30   ar
    21    14    17    2
    22    15    16    1
    23    16    17    1
    24    16    18    1
    25    16    22    1
    26    18    19    1
    27    19    20    1
    28    20    21    1
    29    21    22    1
    30    23    24    1
    31    23    88    1
    32    23    89    1
    33    24    25    1
    34    24    26    1
    35    24    90    1
    36    25    91    1
    37    25    92    1
    38    25    93    1
    39    26    94    1
    40    26    95    1
    41    26    96    1
    42    27    28   ar
    43    28    29   ar
    44    29    30   ar
    45    29    31    1
    46    30    33    1
    47    31    32    1
    48    32    33    1
    49    32    35    1
    50    34    97    1
    51    34    98    1
    52    34    99    1
    53    35    61    1
    54    36    37    1
    55    36    60    1
    56    37    38    1
    57    38    39    1
    58    39    40    1
    59    40    41    1
    60    41    42    1
    61    45   100    1
    62    47   101    1
    63    47   102    1
    64    47   103    1
    65    48   104    1
    66    49   105    1
    67    49   106    1
    68    49   107    1
    69    50   108    1
    70    51    59    1
    71    52   109    1
    72    52   110    1
    73    52   111    1
    74    53    54    1
    75    54    55    2
    76    54    56    1
    77    56   112    1
    78    56   113    1
    79    56   114    1
    80    57   115    1
    81    57   116    1
    82    57   117    1
    83    58   118    1
    84    58   119    1
    85    58   120    1
    86    59   121    1
    87    59   122    1
    88    59   123    1
    89    60    61    2
    90     1    47    1
    91     1    62    1
    92     2    63    1
    93     3    64    1
    94     4    65    1
    95     5     6    1
    96     7     8    2
    97     9    78    1
    98    15    79    1
    99    18    80    1
   100    18    81    1
   101    19    82    1
   102    19    83    1
   103    20    23    1
   104    21    84    1
   105    21    85    1
   106    22    86    1
   107    22    87    1
   108    27    45    1
   109    28    34    1
   110    32    58    1
   111    33    46    2
   112    36    51    1
   113    36    66    1
   114    37    52    1
   115    37    67    1
   116    38    53    1
   117    38    68    1
   118    42    48    1
   119    42    72    1
   120    43    44    2
   121    60    73    1
   122    61    74    1
   123    39    69    1
   124    39    57    1
   125    40    70    1
   126    40    50    1
   127    41    71    1
   128    41    49    1
