@<TRIPOS>MOLECULE
*****
 123 128 0 0 0
SMALL
GASTEIGER

@<TRIPOS>ATOM
     1 C         1.86418   4.137896   -1.982865 C.3        1 UNL1     0.0009
     2 C         3.487817   4.916759   -2.423562 C.2        1 UNL1     -0.0787
     3 C         4.675531   5.649079   -2.037446 C.2        1 UNL1     -0.0649
     4 C         6.029871   6.01037   -2.986967 C.2        1 UNL1     -0.0542
     5 C         7.396885   6.381733   -2.96601 C.2        1 UNL1     0.0115
     6 C         8.552458   6.870087   -2.049775 C.3        1 UNL1     -0.0348
     7 C         8.281761   6.162652   -4.287368 C.2        1 UNL1     0.2441
     8 O         8.577375   7.073339   -5.048806 O.2        1 UNL1     -0.2702
     9 N         8.911957   4.908991   -4.373025 N.am        1 UNL1     -0.2772
     10 C         8.080111   3.993561   -4.975804 C.2        1 UNL1     0.1049
     11 C         7.185215   3.41714   -4.194062 C.2        1 UNL1     0.0801
     12 C         6.60664   3.664265   -6.970242 C.ar        1 UNL1     0.0753
     13 C         5.592315   3.241556   -6.053143 C.ar        1 UNL1     0.0305
     14 C         5.89283   2.979442   -4.647427 C.2        1 UNL1     0.0924
     15 N         7.080842   3.417338   -2.85405 N.pl3        1 UNL1     -0.3170
     16 C         6.033392   2.498635   -2.494764 C.3        1 UNL1     0.1275
     17 N         5.110135   2.492618   -3.688616 N.2        1 UNL1     -0.2557
     18 C         6.654552   1.106507   -2.432775 C.3        1 UNL1     0.0016
     19 C         7.8228   1.138092   -1.460259 C.3        1 UNL1     0.0026
     20 N         7.332051   1.551562   -0.152881 N.3        1 UNL1     -0.3018
     21 C         6.662256   2.853436   -0.123454 C.3        1 UNL1     0.0026
     22 C         5.489495   2.797676   -1.103973 C.3        1 UNL1     0.0016
     23 C         8.294668   1.328079   0.907339 C.3        1 UNL1     0.0012
     24 C         9.517368   0.565807   0.372829 C.3        1 UNL1     -0.0339
     25 C         10.712271   0.674489   1.334314 C.3        1 UNL1     -0.0615
     26 C         9.149687   -0.882262   0.099539 C.3        1 UNL1     -0.0615
     27 C         6.340054   3.795373   -8.331073 C.ar        1 UNL1     0.1347
     28 C         5.113177   3.495249   -8.895653 C.ar        1 UNL1     0.0342
     29 C         4.11621   3.128051   -7.967006 C.ar        1 UNL1     0.1435
     30 C         4.358875   3.027384   -6.596531 C.ar        1 UNL1     0.0774
     31 O         2.900301   2.69972   -8.370868 O.3        1 UNL1     -0.4436
     32 C         2.369701   1.994545   -7.238586 C.3        1 UNL1     0.3143
     33 C         3.107425   2.556927   -6.040377 C.2        1 UNL1     0.2504
     34 C         4.826202   3.370029   -10.366049 C.3        1 UNL1     -0.0327
     35 O         0.996484   2.380301   -7.101771 O.2        1 UNL1     -0.4528
     36 C         -0.776399   -0.607547   -5.572805 C.3        1 UNL1     0.0854
     37 C         -0.474128   -1.360544   -4.220344 C.3        1 UNL1     0.0236
     38 C         -1.718806   -1.470314   -3.215123 C.3        1 UNL1     0.1131
     39 C         -2.542693   -0.172804   -2.841027 C.3        1 UNL1     0.0200
     40 C         -1.755906   1.255173   -2.488484 C.3        1 UNL1     0.0661
     41 C         -0.468376   1.437553   -1.399166 C.3        1 UNL1     0.0091
     42 C         0.957581   2.591417   -1.424618 C.3        1 UNL1     0.0661
     43 C         7.976042   3.872303   -6.437591 C.2        1 UNL1     0.2131
     44 O         8.978462   3.84345   -7.128286 O.2        1 UNL1     -0.2851
     45 O         7.369952   4.255991   -9.148739 O.3        1 UNL1     -0.5056
     46 O         2.736518   2.622251   -4.889719 O.2        1 UNL1     -0.2836
     47 C         0.780619   5.230175   -1.775976 C.3        1 UNL1     -0.0566
     48 O         0.802798   2.994451   -0.005913 O.3        1 UNL1     -0.3909
     49 C         0.077098   0.069547   -1.054912 C.3        1 UNL1     -0.0577
     50 O         -1.498571   1.990031   -3.668097 O.3        1 UNL1     -0.3910
     51 O         -2.034705   0.02222   -5.659359 O.3        1 UNL1     -0.3753
     52 C         0.980552   -1.08852   -3.715509 C.3        1 UNL1     -0.0564
     53 O         -1.517387   -2.473428   -2.117162 O.3        1 UNL1     -0.4608
     54 C         -2.310241   -2.607662   -1.007525 C.2        1 UNL1     0.3042
     55 O         -3.49736   -2.30387   -0.896629 O.2        1 UNL1     -0.2512
     56 C         -1.612903   -3.254617   0.15518 C.3        1 UNL1     0.0332
     57 C         -3.806729   -0.105576   -3.818712 C.3        1 UNL1     -0.0567
     58 C         2.769854   0.511804   -7.419932 C.3        1 UNL1     0.0210
     59 C         -2.426507   0.741701   -4.491154 C.3        1 UNL1     0.0372
     60 C         0.239017   0.406014   -5.968766 C.2        1 UNL1     -0.0208
     61 C         0.086384   1.647264   -6.432174 C.2        1 UNL1     0.0882
     62 H         1.768878   3.795071   -3.020218 H        1 UNL1     0.0365
     63 H         3.500998   4.762262   -3.5045 H        1 UNL1     0.0576
     64 H         4.876091   5.905742   -0.994849 H        1 UNL1     0.0615
     65 H         5.698494   5.794692   -4.006357 H        1 UNL1     0.0622
     66 H         -0.734225   -1.392406   -6.341091 H        1 UNL1     0.0645
     67 H         -0.343236   -2.413903   -4.523434 H        1 UNL1     0.0362
     68 H         -2.398325   -2.080319   -3.829671 H        1 UNL1     0.0741
     69 H         -3.102371   -0.365005   -1.935363 H        1 UNL1     0.0359
     70 H         -2.576568   1.807513   -1.992002 H        1 UNL1     0.0600
     71 H         -1.02924   1.685962   -0.476841 H        1 UNL1     0.0348
     72 H         0.202056   3.028209   -2.09373 H        1 UNL1     0.0602
     73 H         1.202072   -0.040747   -5.955442 H        1 UNL1     0.0628
     74 H         -0.855677   2.196547   -6.425343 H        1 UNL1     0.1022
     75 H         8.462098   7.966005   -1.855268 H        1 UNL1     0.0279
     76 H         8.582909   6.455503   -1.044657 H        1 UNL1     0.0279
     77 H         9.535439   6.817294   -2.540348 H        1 UNL1     0.0279
     78 H         9.118745   4.565478   -3.437442 H        1 UNL1     0.1553
     79 H         7.837465   3.647726   -2.236494 H        1 UNL1     0.1484
     80 H         5.889377   0.387354   -2.116401 H        1 UNL1     0.0317
     81 H         6.995785   0.785844   -3.42292 H        1 UNL1     0.0317
     82 H         8.625906   1.803325   -1.810114 H        1 UNL1     0.0428
     83 H         8.25216   0.136124   -1.432679 H        1 UNL1     0.0428
     84 H         6.233414   3.104139   0.851766 H        1 UNL1     0.0428
     85 H         7.360364   3.677016   -0.327606 H        1 UNL1     0.0428
     86 H         4.946794   3.713288   -0.958648 H        1 UNL1     0.0317
     87 H         4.775135   2.026712   -0.790285 H        1 UNL1     0.0317
     88 H         8.627431   2.306318   1.278299 H        1 UNL1     0.0429
     89 H         7.838812   0.800696   1.755182 H        1 UNL1     0.0429
     90 H         9.809027   0.988716   -0.595828 H        1 UNL1     0.0308
     91 H         10.431796   1.1834   2.261377 H        1 UNL1     0.0233
     92 H         11.106569   -0.315815   1.573969 H        1 UNL1     0.0233
     93 H         11.546726   1.239289   0.901277 H        1 UNL1     0.0233
     94 H         8.138197   -0.94308   -0.316425 H        1 UNL1     0.0233
     95 H         9.840976   -1.311821   -0.630913 H        1 UNL1     0.0233
     96 H         9.184174   -1.48202   1.01336 H        1 UNL1     0.0233
     97 H         5.228466   4.204802   -10.932236 H        1 UNL1     0.0280
     98 H         5.276347   2.46772   -10.800172 H        1 UNL1     0.0280
     99 H         3.736346   3.336005   -10.527764 H        1 UNL1     0.0280
     100 H         7.160144   5.027029   -9.645833 H        1 UNL1     0.2922
     101 H         1.12614   5.956137   -1.040279 H        1 UNL1     0.0236
     102 H         -0.196381   4.821683   -1.519874 H        1 UNL1     0.0236
     103 H         0.607317   5.820236   -2.691393 H        1 UNL1     0.0236
     104 H         0.91918   3.963646   0.039758 H        1 UNL1     0.2098
     105 H         -0.481799   -0.75797   -1.484634 H        1 UNL1     0.0234
     106 H         1.143182   -0.056271   -1.243491 H        1 UNL1     0.0234
     107 H         0.0   0.0   0.0 H        1 UNL1     0.0234
     108 H         -1.203792   1.353718   -4.347787 H        1 UNL1     0.2098
     109 H         1.597791   -1.997766   -3.715738 H        1 UNL1     0.0234
     110 H         1.490763   -0.299158   -4.277946 H        1 UNL1     0.0234
     111 H         0.987967   -0.724496   -2.679469 H        1 UNL1     0.0234
     112 H         -1.104202   -2.493417   0.754466 H        1 UNL1     0.0342
     113 H         -2.295909   -3.841714   0.767276 H        1 UNL1     0.0342
     114 H         -0.848879   -3.938135   -0.240085 H        1 UNL1     0.0342
     115 H         -3.664898   0.633329   -4.619394 H        1 UNL1     0.0234
     116 H         -4.053712   -1.058379   -4.291167 H        1 UNL1     0.0234
     117 H         -4.719193   0.279937   -3.332162 H        1 UNL1     0.0234
     118 H         3.390553   0.14465   -6.583907 H        1 UNL1     0.0309
     119 H         1.909474   -0.153047   -7.546114 H        1 UNL1     0.0309
     120 H         3.407221   0.352616   -8.29659 H        1 UNL1     0.0309
     121 H         -1.550633   0.829727   -3.848928 H        1 UNL1     0.0524
     122 H         -2.770937   1.762922   -4.724636 H        1 UNL1     0.0524
     123 H         -3.220225   0.21196   -3.972039 H        1 UNL1     0.0524
@<TRIPOS>BOND
     1     1     2    1
     2     1    42    1
     3     2     3    2
     4     3     4    1
     5     4     5    2
     6     5     7    1
     7     6    75    1
     8     6    76    1
     9     6    77    1
    10     7     9   am
    11     9    10    1
    12    10    11    2
    13    10    43    1
    14    11    14    1
    15    11    15    1
    16    12    13   ar
    17    12    27   ar
    18    12    43    1
    19    13    14    1
    20    13    30   ar
    21    14    17    2
    22    15    16    1
    23    16    17    1
    24    16    18    1
    25    16    22    1
    26    18    19    1
    27    19    20    1
    28    20    21    1
    29    21    22    1
    30    23    24    1
    31    23    88    1
    32    23    89    1
    33    24    25    1
    34    24    26    1
    35    24    90    1
    36    25    91    1
    37    25    92    1
    38    25    93    1
    39    26    94    1
    40    26    95    1
    41    26    96    1
    42    27    28   ar
    43    28    29   ar
    44    29    30   ar
    45    29    31    1
    46    30    33    1
    47    31    32    1
    48    32    33    1
    49    32    35    1
    50    34    97    1
    51    34    98    1
    52    34    99    1
    53    35    61    1
    54    36    37    1
    55    36    60    1
    56    37    38    1
    57    38    39    1
    58    39    40    1
    59    40    41    1
    60    41    42    1
    61    45   100    1
    62    47   101    1
    63    47   102    1
    64    47   103    1
    65    48   104    1
    66    49   105    1
    67    49   106    1
    68    49   107    1
    69    50   108    1
    70    51    59    1
    71    52   109    1
    72    52   110    1
    73    52   111    1
    74    53    54    1
    75    54    55    2
    76    54    56    1
    77    56   112    1
    78    56   113    1
    79    56   114    1
    80    57   115    1
    81    57   116    1
    82    57   117    1
    83    58   118    1
    84    58   119    1
    85    58   120    1
    86    59   121    1
    87    59   122    1
    88    59   123    1
    89    60    61    2
    90     1    47    1
    91     1    62    1
    92     2    63    1
    93     3    64    1
    94     4    65    1
    95     5     6    1
    96     7     8    2
    97     9    78    1
    98    15    79    1
    99    18    80    1
   100    18    81    1
   101    19    82    1
   102    19    83    1
   103    20    23    1
   104    21    84    1
   105    21    85    1
   106    22    86    1
   107    22    87    1
   108    27    45    1
   109    28    34    1
   110    32    58    1
   111    33    46    2
   112    36    51    1
   113    36    66    1
   114    37    52    1
   115    37    67    1
   116    38    53    1
   117    38    68    1
   118    42    48    1
   119    42    72    1
   120    43    44    2
   121    60    73    1
   122    61    74    1
   123    39    69    1
   124    39    57    1
   125    40    70    1
   126    40    50    1
   127    41    71    1
   128    41    49    1
