@<TRIPOS>MOLECULE
*****
 123 128 0 0 0
SMALL
GASTEIGER

@<TRIPOS>ATOM
     1 C         2.760397   1.340238   2.914929 C.3        1 UNL1     0.0009
     2 C         2.388661   2.223746   4.501832 C.2        1 UNL1     -0.0787
     3 C         2.367704   3.439718   5.287338 C.2        1 UNL1     -0.0649
     4 C         1.726869   3.665913   6.837991 C.2        1 UNL1     -0.0542
     5 C         1.251511   4.621327   7.769816 C.2        1 UNL1     0.0115
     6 C         1.142422   6.142638   8.064833 C.3        1 UNL1     -0.0348
     7 C         0.347688   4.124007   8.999761 C.2        1 UNL1     0.2441
     8 O         0.783202   3.993297   10.135441 O.2        1 UNL1     -0.2702
     9 N         -1.034208   4.099367   8.743033 N.am        1 UNL1     -0.2772
     10 C         -1.399811   2.890165   8.19761 C.2        1 UNL1     0.1049
     11 C         -1.221942   2.761495   6.895293 C.2        1 UNL1     0.0801
     12 C         -1.164713   0.419789   8.512738 C.ar        1 UNL1     0.0753
     13 C         -0.772249   0.360783   7.137566 C.ar        1 UNL1     0.0305
     14 C         -0.915755   1.513204   6.250783 C.2        1 UNL1     0.0924
     15 N         -0.935149   3.689959   5.966728 N.pl3        1 UNL1     -0.3170
     16 C         -1.017565   3.060266   4.675624 C.3        1 UNL1     0.1275
     17 N         -0.699593   1.609171   4.94197 N.2        1 UNL1     -0.2557
     18 C         -2.480705   3.101092   4.245209 C.3        1 UNL1     0.0016
     19 C         -2.955024   4.545377   4.270708 C.3        1 UNL1     0.0026
     20 N         -2.121381   5.327503   3.368297 N.3        1 UNL1     -0.3018
     21 C         -0.687695   5.299604   3.665171 C.3        1 UNL1     0.0026
     22 C         -0.231619   3.839936   3.629703 C.3        1 UNL1     0.0016
     23 C         -2.669088   6.6402   3.089931 C.3        1 UNL1     0.0012
     24 C         -3.926056   6.524548   2.213341 C.3        1 UNL1     -0.0339
     25 C         -5.157675   7.120385   2.914875 C.3        1 UNL1     -0.0615
     26 C         -3.681512   7.176678   0.863635 C.3        1 UNL1     -0.0615
     27 C         -1.13832   -0.714889   9.320159 C.ar        1 UNL1     0.1347
     28 C         -0.777558   -1.967336   8.856178 C.ar        1 UNL1     0.0342
     29 C         -0.348341   -1.991792   7.512177 C.ar        1 UNL1     0.1435
     30 C         -0.334992   -0.856192   6.701341 C.ar        1 UNL1     0.0774
     31 O         -0.069731   -3.154004   6.882378 O.3        1 UNL1     -0.4436
     32 C         -0.143286   -2.835662   5.484479 C.3        1 UNL1     0.3143
     33 C         0.092747   -1.34091   5.405635 C.2        1 UNL1     0.2504
     34 C         -0.964413   -3.266604   9.58904 C.3        1 UNL1     -0.0327
     35 O         0.971614   -3.468416   4.844266 O.2        1 UNL1     -0.4528
     36 C         -0.164756   -4.24902   1.307685 C.3        1 UNL1     0.0854
     37 C         -0.713308   -3.270872   0.198703 C.3        1 UNL1     0.0236
     38 C         0.076982   -3.319031   -1.195882 C.3        1 UNL1     0.1131
     39 C         1.653277   -3.187257   -1.210017 C.3        1 UNL1     0.0200
     40 C         2.414526   -2.049045   -0.257436 C.3        1 UNL1     0.0661
     41 C         2.013497   -0.403472   -0.163218 C.3        1 UNL1     0.0091
     42 C         2.126414   0.770318   1.242082 C.3        1 UNL1     0.0661
     43 C         -1.686081   1.71037   9.027361 C.2        1 UNL1     0.2131
     44 O         -2.39675   1.80472   10.011629 O.2        1 UNL1     -0.2851
     45 O         -1.492277   -0.562217   10.65913 O.3        1 UNL1     -0.5056
     46 O         0.551476   -0.697846   4.488089 O.2        1 UNL1     -0.2836
     47 C         4.290925   1.132359   2.759195 C.3        1 UNL1     -0.0566
     48 O         2.779395   1.83772   0.446228 O.3        1 UNL1     -0.3909
     49 C         0.660697   -0.193287   -0.806064 C.3        1 UNL1     -0.0577
     50 O         2.659412   -2.561547   1.036818 O.3        1 UNL1     -0.3910
     51 O         1.043241   -4.909261   1.003948 O.3        1 UNL1     -0.3753
     52 C         -1.236421   -1.930955   0.81183 C.3        1 UNL1     -0.0564
     53 O         -0.658621   -2.660353   -2.326084 O.3        1 UNL1     -0.4608
     54 C         -0.156424   -2.443898   -3.582618 C.2        1 UNL1     0.3042
     55 O         0.264729   -1.384954   -4.046412 O.2        1 UNL1     -0.2512
     56 C         -0.08548   -3.686271   -4.424159 C.3        1 UNL1     0.0332
     57 C         2.260732   -4.666666   -1.232846 C.3        1 UNL1     -0.0567
     58 C         -1.594869   -3.135453   5.043388 C.3        1 UNL1     0.0210
     59 C         1.218651   -6.167226   1.654042 C.3        1 UNL1     0.0372
     60 C         0.005998   -3.639839   2.654868 C.2        1 UNL1     -0.0208
     61 C         1.013085   -3.732804   3.524279 C.2        1 UNL1     0.0882
     62 H         2.362823   0.418772   3.357136 H        1 UNL1     0.0365
     63 H         2.073523   1.388575   5.130837 H        1 UNL1     0.0576
     64 H         2.636948   4.405665   4.854254 H        1 UNL1     0.0615
     65 H         1.56897   2.648394   7.205696 H        1 UNL1     0.0622
     66 H         -0.950621   -5.009438   1.418253 H        1 UNL1     0.0645
     67 H         -1.686819   -3.706813   -0.085538 H        1 UNL1     0.0362
     68 H         -0.131506   -4.35911   -1.489634 H        1 UNL1     0.0741
     69 H         1.970626   -2.912512   -2.20712 H        1 UNL1     0.0359
     70 H         3.410101   -2.030981   -0.740721 H        1 UNL1     0.0600
     71 H         2.688906   0.004876   -0.940413 H        1 UNL1     0.0348
     72 H         2.794276   -0.066882   1.491827 H        1 UNL1     0.0602
     73 H         -0.899174   -3.163951   2.940253 H        1 UNL1     0.0628
     74 H         1.99223   -4.152525   3.291153 H        1 UNL1     0.1022
     75 H         2.125293   6.645783   7.897969 H        1 UNL1     0.0279
     76 H         0.474806   6.714399   7.424172 H        1 UNL1     0.0279
     77 H         0.966562   6.357923   9.128988 H        1 UNL1     0.0279
     78 H         -1.269619   4.82371   8.067766 H        1 UNL1     0.1553
     79 H         -1.075498   4.674374   6.10149 H        1 UNL1     0.1484
     80 H         -2.570417   2.667719   3.241762 H        1 UNL1     0.0317
     81 H         -3.100802   2.488028   4.907994 H        1 UNL1     0.0317
     82 H         -2.935959   4.962255   5.288433 H        1 UNL1     0.0428
     83 H         -4.000913   4.551299   3.962276 H        1 UNL1     0.0428
     84 H         -0.076581   5.828599   2.927259 H        1 UNL1     0.0428
     85 H         -0.456761   5.803926   4.613668 H        1 UNL1     0.0428
     86 H         0.838586   3.868742   3.71813 H        1 UNL1     0.0317
     87 H         -0.39239   3.421345   2.628688 H        1 UNL1     0.0317
     88 H         -2.950479   7.102442   4.045151 H        1 UNL1     0.0429
     89 H         -1.920457   7.294111   2.624394 H        1 UNL1     0.0429
     90 H         -4.121582   5.466246   2.003627 H        1 UNL1     0.0308
     91 H         -4.990404   7.225427   3.99102 H        1 UNL1     0.0233
     92 H         -5.407311   8.097071   2.493716 H        1 UNL1     0.0233
     93 H         -6.051241   6.496618   2.791216 H        1 UNL1     0.0233
     94 H         -3.755362   8.266013   0.951562 H        1 UNL1     0.0233
     95 H         -2.675963   6.934541   0.508384 H        1 UNL1     0.0233
     96 H         -4.409226   6.839883   0.120016 H        1 UNL1     0.0233
     97 H         -1.578816   -3.96545   9.029259 H        1 UNL1     0.0280
     98 H         -0.011428   -3.781242   9.768549 H        1 UNL1     0.0280
     99 H         -1.453264   -3.076453   10.558557 H        1 UNL1     0.0280
     100 H         -1.0612   0.149086   11.099406 H        1 UNL1     0.2922
     101 H         4.543813   0.092888   2.96705 H        1 UNL1     0.0236
     102 H         4.880763   1.824601   3.359092 H        1 UNL1     0.0236
     103 H         4.628385   1.300637   1.722857 H        1 UNL1     0.0236
     104 H         2.635387   1.631521   -0.498079 H        1 UNL1     0.2098
     105 H         0.613169   0.65386   -1.485692 H        1 UNL1     0.0234
     106 H         0.237951   -1.080236   -1.2778 H        1 UNL1     0.0234
     107 H         -0.0   0.0   0.0 H        1 UNL1     0.0234
     108 H         2.88791   -1.804649   1.610109 H        1 UNL1     0.2098
     109 H         -1.285084   -1.966635   1.909131 H        1 UNL1     0.0234
     110 H         -0.653423   -1.057994   0.499103 H        1 UNL1     0.0234
     111 H         -2.257031   -1.703567   0.476278 H        1 UNL1     0.0234
     112 H         0.341938   -3.448785   -5.403067 H        1 UNL1     0.0342
     113 H         0.476068   -4.48076   -3.934981 H        1 UNL1     0.0342
     114 H         -1.109319   -4.051729   -4.583405 H        1 UNL1     0.0342
     115 H         3.201555   -4.713165   -1.798423 H        1 UNL1     0.0234
     116 H         2.452334   -5.08324   -0.241985 H        1 UNL1     0.0234
     117 H         1.640332   -5.388388   -1.791561 H        1 UNL1     0.0234
     118 H         -1.652425   -4.012695   4.375451 H        1 UNL1     0.0309
     119 H         -2.278447   -3.281263   5.885804 H        1 UNL1     0.0309
     120 H         -2.025618   -2.329409   4.439357 H        1 UNL1     0.0309
     121 H         1.681313   -5.97645   2.62198 H        1 UNL1     0.0524
     122 H         0.259939   -6.679565   1.83956 H        1 UNL1     0.0524
     123 H         1.854117   -6.81407   1.055819 H        1 UNL1     0.0524
@<TRIPOS>BOND
     1     1     2    1
     2     1    42    1
     3     2     3    2
     4     3     4    1
     5     4     5    2
     6     5     7    1
     7     6    75    1
     8     6    76    1
     9     6    77    1
    10     7     9   am
    11     9    10    1
    12    10    11    2
    13    10    43    1
    14    11    14    1
    15    11    15    1
    16    12    13   ar
    17    12    27   ar
    18    12    43    1
    19    13    14    1
    20    13    30   ar
    21    14    17    2
    22    15    16    1
    23    16    17    1
    24    16    18    1
    25    16    22    1
    26    18    19    1
    27    19    20    1
    28    20    21    1
    29    21    22    1
    30    23    24    1
    31    23    88    1
    32    23    89    1
    33    24    25    1
    34    24    26    1
    35    24    90    1
    36    25    91    1
    37    25    92    1
    38    25    93    1
    39    26    94    1
    40    26    95    1
    41    26    96    1
    42    27    28   ar
    43    28    29   ar
    44    29    30   ar
    45    29    31    1
    46    30    33    1
    47    31    32    1
    48    32    33    1
    49    32    35    1
    50    34    97    1
    51    34    98    1
    52    34    99    1
    53    35    61    1
    54    36    37    1
    55    36    60    1
    56    37    38    1
    57    38    39    1
    58    39    40    1
    59    40    41    1
    60    41    42    1
    61    45   100    1
    62    47   101    1
    63    47   102    1
    64    47   103    1
    65    48   104    1
    66    49   105    1
    67    49   106    1
    68    49   107    1
    69    50   108    1
    70    51    59    1
    71    52   109    1
    72    52   110    1
    73    52   111    1
    74    53    54    1
    75    54    55    2
    76    54    56    1
    77    56   112    1
    78    56   113    1
    79    56   114    1
    80    57   115    1
    81    57   116    1
    82    57   117    1
    83    58   118    1
    84    58   119    1
    85    58   120    1
    86    59   121    1
    87    59   122    1
    88    59   123    1
    89    60    61    2
    90     1    47    1
    91     1    62    1
    92     2    63    1
    93     3    64    1
    94     4    65    1
    95     5     6    1
    96     7     8    2
    97     9    78    1
    98    15    79    1
    99    18    80    1
   100    18    81    1
   101    19    82    1
   102    19    83    1
   103    20    23    1
   104    21    84    1
   105    21    85    1
   106    22    86    1
   107    22    87    1
   108    27    45    1
   109    28    34    1
   110    32    58    1
   111    33    46    2
   112    36    51    1
   113    36    66    1
   114    37    52    1
   115    37    67    1
   116    38    53    1
   117    38    68    1
   118    42    48    1
   119    42    72    1
   120    43    44    2
   121    60    73    1
   122    61    74    1
   123    39    69    1
   124    39    57    1
   125    40    70    1
   126    40    50    1
   127    41    71    1
   128    41    49    1
