@<TRIPOS>MOLECULE
*****
 123 128 0 0 0
SMALL
GASTEIGER

@<TRIPOS>ATOM
     1 C         5.16103   1.775928   0.457294 C.3        1 UNL1     0.0009
     2 C         6.590679   2.581922   -0.404979 C.2        1 UNL1     -0.0787
     3 C         7.870369   2.484386   -1.074999 C.2        1 UNL1     -0.0649
     4 C         8.739204   3.71758   -1.843579 C.2        1 UNL1     -0.0542
     5 C         9.754193   4.007561   -2.788453 C.2        1 UNL1     0.0115
     6 C         10.881825   3.380544   -3.653681 C.3        1 UNL1     -0.0348
     7 C         9.840388   5.48649   -3.406779 C.2        1 UNL1     0.2441
     8 O         10.661993   6.314761   -3.038734 O.2        1 UNL1     -0.2702
     9 N         9.084641   5.680981   -4.57604 N.am        1 UNL1     -0.2772
     10 C         7.801418   6.064268   -4.260206 C.2        1 UNL1     0.1049
     11 C         6.961222   5.091326   -3.957424 C.2        1 UNL1     0.0801
     12 C         6.501262   7.675906   -2.856799 C.ar        1 UNL1     0.0753
     13 C         5.749116   6.548066   -2.397601 C.ar        1 UNL1     0.0305
     14 C         5.869465   5.237946   -3.033333 C.2        1 UNL1     0.0924
     15 N         7.089274   3.761724   -4.106719 N.pl3        1 UNL1     -0.3170
     16 C         5.823402   3.159262   -3.782894 C.3        1 UNL1     0.1275
     17 N         5.186505   4.119169   -2.807874 N.2        1 UNL1     -0.2557
     18 C         4.96534   3.204677   -5.043595 C.3        1 UNL1     0.0016
     19 C         5.718896   2.515285   -6.169865 C.3        1 UNL1     0.0026
     20 N         5.99683   1.141452   -5.774436 N.3        1 UNL1     -0.3018
     21 C         6.765769   0.994125   -4.53694 C.3        1 UNL1     0.0026
     22 C         5.98829   1.689777   -3.418241 C.3        1 UNL1     0.0016
     23 C         6.440709   0.315361   -6.879511 C.3        1 UNL1     0.0012
     24 C         5.282567   0.053053   -7.85504 C.3        1 UNL1     -0.0339
     25 C         5.36867   0.966544   -9.088806 C.3        1 UNL1     -0.0615
     26 C         5.253726   -1.414101   -8.24671 C.3        1 UNL1     -0.0615
     27 C         6.292944   8.946804   -2.326195 C.ar        1 UNL1     0.1347
     28 C         5.336444   9.219438   -1.364516 C.ar        1 UNL1     0.0342
     29 C         4.641874   8.085425   -0.892549 C.ar        1 UNL1     0.1435
     30 C         4.865173   6.800526   -1.388928 C.ar        1 UNL1     0.0774
     31 O         3.603736   8.200889   -0.035844 O.3        1 UNL1     -0.4436
     32 C         2.887133   6.963749   -0.165604 C.3        1 UNL1     0.3143
     33 C         3.902848   5.971147   -0.69407 C.2        1 UNL1     0.2504
     34 C         4.885117   10.58688   -0.932651 C.3        1 UNL1     -0.0327
     35 O         2.533666   6.535638   1.155393 O.2        1 UNL1     -0.4528
     36 C         -0.702073   4.585769   0.786484 C.3        1 UNL1     0.0854
     37 C         -1.005154   3.316895   -0.09987 C.3        1 UNL1     0.0236
     38 C         -1.596852   2.059293   0.700178 C.3        1 UNL1     0.1131
     39 C         -0.863569   1.54176   2.002762 C.3        1 UNL1     0.0200
     40 C         0.798418   1.404062   2.038463 C.3        1 UNL1     0.0661
     41 C         1.756678   0.63054   0.871838 C.3        1 UNL1     0.0091
     42 C         3.460363   0.996439   0.298272 C.3        1 UNL1     0.0661
     43 C         7.447824   7.463818   -3.979874 C.2        1 UNL1     0.2131
     44 O         7.84078   8.358096   -4.706917 O.2        1 UNL1     -0.2851
     45 O         7.098675   9.98199   -2.795904 O.3        1 UNL1     -0.5056
     46 O         3.924837   4.768748   -0.554044 O.2        1 UNL1     -0.2836
     47 C         5.565002   1.359423   1.897194 C.3        1 UNL1     -0.0566
     48 O         3.915672   -0.411944   0.3892 O.3        1 UNL1     -0.3909
     49 C         0.918686   0.38456   -0.362973 C.3        1 UNL1     -0.0577
     50 O         1.394601   2.627641   2.41944 O.3        1 UNL1     -0.3910
     51 O         -0.819818   4.406341   2.179815 O.3        1 UNL1     -0.3753
     52 C         0.035477   3.152212   -1.255255 C.3        1 UNL1     -0.0564
     53 O         -2.198251   1.010639   -0.189187 O.3        1 UNL1     -0.4608
     54 C         -2.394168   -0.302571   0.14997 C.2        1 UNL1     0.3042
     55 O         -1.745613   -1.276766   -0.229713 O.2        1 UNL1     -0.2512
     56 C         -3.503424   -0.508483   1.141869 C.3        1 UNL1     0.0332
     57 C         -1.582667   2.217255   3.261642 C.3        1 UNL1     -0.0567
     58 C         1.806572   7.195546   -1.247357 C.3        1 UNL1     0.0210
     59 C         -1.135468   5.589627   2.911979 C.3        1 UNL1     0.0372
     60 C         0.623125   5.219052   0.545723 C.2        1 UNL1     -0.0208
     61 C         1.537485   5.66515   1.408096 C.2        1 UNL1     0.0882
     62 H         4.680979   2.758585   0.538824 H        1 UNL1     0.0365
     63 H         6.320051   3.635292   -0.306786 H        1 UNL1     0.0576
     64 H         8.331549   1.51793   -1.290365 H        1 UNL1     0.0615
     65 H         8.249327   4.633429   -1.501931 H        1 UNL1     0.0622
     66 H         -1.451332   5.326488   0.473447 H        1 UNL1     0.0645
     67 H         -1.874504   3.617583   -0.710096 H        1 UNL1     0.0362
     68 H         -2.544509   2.494599   1.052281 H        1 UNL1     0.0741
     69 H         -1.18971   0.530721   2.207311 H        1 UNL1     0.0359
     70 H         0.916672   0.751109   2.924312 H        1 UNL1     0.0600
     71 H         1.806593   -0.38707   1.306505 H        1 UNL1     0.0348
     72 H         3.356121   1.491757   1.274546 H        1 UNL1     0.0602
     73 H         0.736034   5.408773   -0.492789 H        1 UNL1     0.0628
     74 H         1.525116   5.462727   2.479595 H        1 UNL1     0.1022
     75 H         10.880534   2.268364   -3.553237 H        1 UNL1     0.0279
     76 H         10.801461   3.518683   -4.729566 H        1 UNL1     0.0279
     77 H         11.888136   3.630202   -3.286653 H        1 UNL1     0.0279
     78 H         9.024534   4.806708   -5.093836 H        1 UNL1     0.1553
     79 H         7.754047   3.331962   -4.723416 H        1 UNL1     0.1484
     80 H         4.007077   2.710923   -4.841837 H        1 UNL1     0.0317
     81 H         4.732945   4.238257   -5.321725 H        1 UNL1     0.0317
     82 H         6.646144   3.048848   -6.425664 H        1 UNL1     0.0428
     83 H         5.089987   2.560668   -7.059507 H        1 UNL1     0.0428
     84 H         6.892056   -0.045838   -4.220174 H        1 UNL1     0.0428
     85 H         7.793758   1.365995   -4.647708 H        1 UNL1     0.0428
     86 H         6.509426   1.448818   -2.510306 H        1 UNL1     0.0317
     87 H         5.011532   1.208701   -3.285554 H        1 UNL1     0.0317
     88 H         7.232211   0.856638   -7.41415 H        1 UNL1     0.0429
     89 H         6.878987   -0.625688   -6.522984 H        1 UNL1     0.0429
     90 H         4.331814   0.245345   -7.34386 H        1 UNL1     0.0308
     91 H         6.322509   0.841977   -9.610127 H        1 UNL1     0.0233
     92 H         4.550889   0.757129   -9.782338 H        1 UNL1     0.0233
     93 H         5.284626   2.028676   -8.828713 H        1 UNL1     0.0233
     94 H         4.596034   -1.561672   -9.110133 H        1 UNL1     0.0233
     95 H         6.25743   -1.745827   -8.526886 H        1 UNL1     0.0233
     96 H         4.891687   -2.039258   -7.425688 H        1 UNL1     0.0233
     97 H         4.040153   10.541017   -0.25209 H        1 UNL1     0.0280
     98 H         5.672918   11.132782   -0.397285 H        1 UNL1     0.0280
     99 H         4.585262   11.172882   -1.816837 H        1 UNL1     0.0280
     100 H         6.630399   10.756586   -3.053471 H        1 UNL1     0.2922
     101 H         4.682799   1.030346   2.445905 H        1 UNL1     0.0236
     102 H         6.112208   2.136064   2.430464 H        1 UNL1     0.0236
     103 H         6.239276   0.48677   1.902092 H        1 UNL1     0.0236
     104 H         4.25136   -0.555466   1.295668 H        1 UNL1     0.2098
     105 H         0.699686   1.277933   -0.942399 H        1 UNL1     0.0234
     106 H         1.28907   -0.406862   -1.014428 H        1 UNL1     0.0234
     107 H         0.0   -0.0   0.0 H        1 UNL1     0.0234
     108 H         1.244272   3.262317   1.692559 H        1 UNL1     0.2098
     109 H         1.063701   3.058731   -0.878788 H        1 UNL1     0.0234
     110 H         -0.189146   2.311281   -1.920178 H        1 UNL1     0.0234
     111 H         0.041277   4.024683   -1.922119 H        1 UNL1     0.0234
     112 H         -3.592967   -1.571678   1.384653 H        1 UNL1     0.0342
     113 H         -3.36338   0.087487   2.042453 H        1 UNL1     0.0342
     114 H         -4.44518   -0.189268   0.674576 H        1 UNL1     0.0342
     115 H         -2.669593   2.057517   3.245363 H        1 UNL1     0.0234
     116 H         -1.213251   1.863811   4.226348 H        1 UNL1     0.0234
     117 H         -1.529229   3.319563   3.259605 H        1 UNL1     0.0234
     118 H         0.90308   7.677329   -0.834326 H        1 UNL1     0.0309
     119 H         2.168619   7.782498   -2.097422 H        1 UNL1     0.0309
     120 H         1.423883   6.258665   -1.666773 H        1 UNL1     0.0309
     121 H         -0.803405   5.44028   3.939007 H        1 UNL1     0.0524
     122 H         -0.61137   6.476864   2.519333 H        1 UNL1     0.0524
     123 H         -2.205959   5.772712   2.887028 H        1 UNL1     0.0524
@<TRIPOS>BOND
     1     1     2    1
     2     1    42    1
     3     2     3    2
     4     3     4    1
     5     4     5    2
     6     5     7    1
     7     6    75    1
     8     6    76    1
     9     6    77    1
    10     7     9   am
    11     9    10    1
    12    10    11    2
    13    10    43    1
    14    11    14    1
    15    11    15    1
    16    12    13   ar
    17    12    27   ar
    18    12    43    1
    19    13    14    1
    20    13    30   ar
    21    14    17    2
    22    15    16    1
    23    16    17    1
    24    16    18    1
    25    16    22    1
    26    18    19    1
    27    19    20    1
    28    20    21    1
    29    21    22    1
    30    23    24    1
    31    23    88    1
    32    23    89    1
    33    24    25    1
    34    24    26    1
    35    24    90    1
    36    25    91    1
    37    25    92    1
    38    25    93    1
    39    26    94    1
    40    26    95    1
    41    26    96    1
    42    27    28   ar
    43    28    29   ar
    44    29    30   ar
    45    29    31    1
    46    30    33    1
    47    31    32    1
    48    32    33    1
    49    32    35    1
    50    34    97    1
    51    34    98    1
    52    34    99    1
    53    35    61    1
    54    36    37    1
    55    36    60    1
    56    37    38    1
    57    38    39    1
    58    39    40    1
    59    40    41    1
    60    41    42    1
    61    45   100    1
    62    47   101    1
    63    47   102    1
    64    47   103    1
    65    48   104    1
    66    49   105    1
    67    49   106    1
    68    49   107    1
    69    50   108    1
    70    51    59    1
    71    52   109    1
    72    52   110    1
    73    52   111    1
    74    53    54    1
    75    54    55    2
    76    54    56    1
    77    56   112    1
    78    56   113    1
    79    56   114    1
    80    57   115    1
    81    57   116    1
    82    57   117    1
    83    58   118    1
    84    58   119    1
    85    58   120    1
    86    59   121    1
    87    59   122    1
    88    59   123    1
    89    60    61    2
    90     1    47    1
    91     1    62    1
    92     2    63    1
    93     3    64    1
    94     4    65    1
    95     5     6    1
    96     7     8    2
    97     9    78    1
    98    15    79    1
    99    18    80    1
   100    18    81    1
   101    19    82    1
   102    19    83    1
   103    20    23    1
   104    21    84    1
   105    21    85    1
   106    22    86    1
   107    22    87    1
   108    27    45    1
   109    28    34    1
   110    32    58    1
   111    33    46    2
   112    36    51    1
   113    36    66    1
   114    37    52    1
   115    37    67    1
   116    38    53    1
   117    38    68    1
   118    42    48    1
   119    42    72    1
   120    43    44    2
   121    60    73    1
   122    61    74    1
   123    39    69    1
   124    39    57    1
   125    40    70    1
   126    40    50    1
   127    41    71    1
   128    41    49    1
