@<TRIPOS>MOLECULE
*****
 123 128 0 0 0
SMALL
GASTEIGER

@<TRIPOS>ATOM
     1 C         0.653566   3.533102   4.10627 C.3        1 UNL1     0.0009
     2 C         1.654874   4.96622   4.72319 C.2        1 UNL1     -0.0787
     3 C         2.653086   5.506864   5.621701 C.2        1 UNL1     -0.0649
     4 C         3.310764   7.066917   5.629034 C.2        1 UNL1     -0.0542
     5 C         4.399255   7.866026   6.057625 C.2        1 UNL1     0.0115
     6 C         5.664744   7.886923   6.958416 C.3        1 UNL1     -0.0348
     7 C         4.643403   9.288105   5.354011 C.2        1 UNL1     0.2441
     8 O         4.326983   10.350049   5.872354 O.2        1 UNL1     -0.2702
     9 N         5.478281   9.250352   4.223655 N.am        1 UNL1     -0.2772
     10 C         4.740273   8.999528   3.089744 C.2        1 UNL1     0.1049
     11 C         4.461679   7.731936   2.845172 C.2        1 UNL1     0.0801
     12 C         2.689809   9.728223   1.856076 C.ar        1 UNL1     0.0753
     13 C         2.326912   8.344815   1.800428 C.ar        1 UNL1     0.0305
     14 C         3.266612   7.291487   2.17794 C.2        1 UNL1     0.0924
     15 N         4.955205   6.615078   3.406945 N.pl3        1 UNL1     -0.3170
     16 C         4.451307   5.490227   2.664616 C.3        1 UNL1     0.1275
     17 N         3.138164   5.970214   2.096293 N.2        1 UNL1     -0.2557
     18 C         5.379092   5.283829   1.471168 C.3        1 UNL1     0.0016
     19 C         6.80008   5.111962   1.983852 C.3        1 UNL1     0.0026
     20 N         6.838083   3.965708   2.881451 N.3        1 UNL1     -0.3018
     21 C         5.931953   4.044429   4.0291 C.3        1 UNL1     0.0026
     22 C         4.50995   4.212198   3.490903 C.3        1 UNL1     0.0016
     23 C         8.187265   3.534113   3.18817 C.3        1 UNL1     0.0012
     24 C         8.844036   2.899922   1.951962 C.3        1 UNL1     -0.0339
     25 C         10.11573   3.659087   1.53902 C.3        1 UNL1     -0.0615
     26 C         9.129073   1.430549   2.209793 C.3        1 UNL1     -0.0615
     27 C         1.833305   10.71873   1.381298 C.ar        1 UNL1     0.1347
     28 C         0.610052   10.446205   0.795269 C.ar        1 UNL1     0.0342
     29 C         0.252533   9.081161   0.795744 C.ar        1 UNL1     0.1435
     30 C         1.084638   8.081212   1.300646 C.ar        1 UNL1     0.0774
     31 O         -0.857597   8.643177   0.162667 O.3        1 UNL1     -0.4436
     32 C         -0.636059   7.23757   -0.027238 C.3        1 UNL1     0.3143
     33 C         0.372973   6.848599   1.034255 C.2        1 UNL1     0.2504
     34 C         -0.244326   11.426752   0.04117 C.3        1 UNL1     -0.0327
     35 O         -1.860237   6.566062   0.294816 O.2        1 UNL1     -0.4528
     36 C         -1.935489   3.446285   -1.866067 C.3        1 UNL1     0.0854
     37 C         -0.888415   2.270138   -1.954593 C.3        1 UNL1     0.0236
     38 C         -1.493546   0.806271   -1.704286 C.3        1 UNL1     0.1131
     39 C         -2.381132   0.531985   -0.423963 C.3        1 UNL1     0.0200
     40 C         -1.925617   1.132125   1.064249 C.3        1 UNL1     0.0661
     41 C         -0.390715   0.978711   1.770047 C.3        1 UNL1     0.0091
     42 C         0.522605   2.109055   2.889677 C.3        1 UNL1     0.0661
     43 C         4.046085   10.066923   2.354132 C.2        1 UNL1     0.2131
     44 O         4.61602   11.111807   2.096978 O.2        1 UNL1     -0.2851
     45 O         2.242939   12.043851   1.514309 O.3        1 UNL1     -0.5056
     46 O         0.537449   5.769583   1.558208 O.2        1 UNL1     -0.2836
     47 C         -0.476447   3.191106   5.114283 C.3        1 UNL1     -0.0566
     48 O         0.901089   1.040477   3.845714 O.3        1 UNL1     -0.3909
     49 C         0.588462   0.518084   0.713387 C.3        1 UNL1     -0.0577
     50 O         -2.410845   2.447394   1.244095 O.3        1 UNL1     -0.3910
     51 O         -3.222131   3.092708   -1.411132 O.3        1 UNL1     -0.3753
     52 C         0.512351   2.695621   -1.40526 C.3        1 UNL1     -0.0564
     53 O         -0.578361   -0.303254   -2.132909 O.3        1 UNL1     -0.4608
     54 C         -0.676673   -1.612069   -1.738867 C.2        1 UNL1     0.3042
     55 O         0.228853   -2.340367   -1.334585 O.2        1 UNL1     -0.2512
     56 C         -2.080132   -2.146699   -1.773309 C.3        1 UNL1     0.0332
     57 C         -3.912821   0.693012   -0.855443 C.3        1 UNL1     -0.0567
     58 C         0.019312   7.082203   -1.419315 C.3        1 UNL1     0.0210
     59 C         -4.235197   3.096534   -2.415896 C.3        1 UNL1     0.0372
     60 C         -1.500078   4.616168   -1.055541 C.2        1 UNL1     -0.0208
     61 C         -2.159577   5.326895   -0.13975 C.2        1 UNL1     0.0882
     62 H         0.209973   4.192912   3.350898 H        1 UNL1     0.0365
     63 H         1.236198   5.779104   4.126196 H        1 UNL1     0.0576
     64 H         3.21224   4.866893   6.307917 H        1 UNL1     0.0615
     65 H         2.638307   7.63627   4.981639 H        1 UNL1     0.0622
     66 H         -2.027357   3.81233   -2.898354 H        1 UNL1     0.0645
     67 H         -0.630765   2.22072   -3.026849 H        1 UNL1     0.0362
     68 H         -2.185819   0.744984   -2.557823 H        1 UNL1     0.0741
     69 H         -2.418158   -0.534851   -0.248185 H        1 UNL1     0.0359
     70 H         -2.56124   0.510276   1.723299 H        1 UNL1     0.0600
     71 H         -0.53734   0.047045   2.350959 H        1 UNL1     0.0348
     72 H         -0.534059   2.406725   2.95424 H        1 UNL1     0.0602
     73 H         -0.547641   4.940726   -1.394322 H        1 UNL1     0.0628
     74 H         -3.112115   5.031599   0.301508 H        1 UNL1     0.1022
     75 H         6.472287   8.496505   6.485851 H        1 UNL1     0.0279
     76 H         5.558012   8.355581   7.93414 H        1 UNL1     0.0279
     77 H         6.150707   6.902984   7.031935 H        1 UNL1     0.0279
     78 H         6.153985   8.495555   4.322562 H        1 UNL1     0.1553
     79 H         5.814972   6.584529   3.923472 H        1 UNL1     0.1484
     80 H         5.047088   4.403054   0.908341 H        1 UNL1     0.0317
     81 H         5.326082   6.134037   0.782701 H        1 UNL1     0.0317
     82 H         7.164339   6.020244   2.486099 H        1 UNL1     0.0428
     83 H         7.445174   4.967996   1.11657 H        1 UNL1     0.0428
     84 H         5.921425   3.138184   4.642632 H        1 UNL1     0.0428
     85 H         6.227621   4.837531   4.729733 H        1 UNL1     0.0428
     86 H         3.865255   4.132418   4.346468 H        1 UNL1     0.0317
     87 H         4.23415   3.34169   2.883246 H        1 UNL1     0.0317
     88 H         8.770537   4.417459   3.479353 H        1 UNL1     0.0429
     89 H         8.200866   2.84408   4.04166 H        1 UNL1     0.0429
     90 H         8.135199   2.925299   1.115829 H        1 UNL1     0.0308
     91 H         10.145943   4.657216   1.986154 H        1 UNL1     0.0233
     92 H         11.009633   3.105742   1.836267 H        1 UNL1     0.0233
     93 H         10.187065   3.794701   0.453039 H        1 UNL1     0.0233
     94 H         10.025273   1.322877   2.830332 H        1 UNL1     0.0233
     95 H         8.291267   0.975876   2.745813 H        1 UNL1     0.0233
     96 H         9.28812   0.884979   1.275435 H        1 UNL1     0.0233
     97 H         0.151342   12.436658   0.093763 H        1 UNL1     0.0280
     98 H         -0.307656   11.184074   -1.027639 H        1 UNL1     0.0280
     99 H         -1.261924   11.431795   0.464921 H        1 UNL1     0.0280
     100 H         2.547649   12.275031   2.374152 H        1 UNL1     0.2922
     101 H         -1.442788   3.236056   4.612466 H        1 UNL1     0.0236
     102 H         -0.452245   3.809079   6.011226 H        1 UNL1     0.0236
     103 H         -0.401392   2.155085   5.484717 H        1 UNL1     0.0236
     104 H         0.155621   0.922478   4.466459 H        1 UNL1     0.2098
     105 H         1.104152   1.323921   0.19715 H        1 UNL1     0.0234
     106 H         1.302977   -0.232551   1.05094 H        1 UNL1     0.0234
     107 H         0.0   -0.0   0.0 H        1 UNL1     0.0234
     108 H         -3.326316   2.467826   0.904591 H        1 UNL1     0.2098
     109 H         0.944107   3.533121   -1.970851 H        1 UNL1     0.0234
     110 H         0.499403   2.942167   -0.338118 H        1 UNL1     0.0234
     111 H         1.242   1.878401   -1.480833 H        1 UNL1     0.0234
     112 H         -2.368388   -2.499792   -0.778532 H        1 UNL1     0.0342
     113 H         -2.789833   -1.410316   -2.147351 H        1 UNL1     0.0342
     114 H         -2.102747   -3.007417   -2.455817 H        1 UNL1     0.0342
     115 H         -4.370408   1.587636   -0.41109 H        1 UNL1     0.0234
     116 H         -4.066572   0.747313   -1.935008 H        1 UNL1     0.0234
     117 H         -4.567736   -0.101234   -0.457696 H        1 UNL1     0.0234
     118 H         -0.60311   6.482086   -2.105941 H        1 UNL1     0.0309
     119 H         0.253412   8.040686   -1.893351 H        1 UNL1     0.0309
     120 H         0.961692   6.524966   -1.380432 H        1 UNL1     0.0309
     121 H         -4.640438   4.106498   -2.471646 H        1 UNL1     0.0524
     122 H         -3.836952   2.843151   -3.412508 H        1 UNL1     0.0524
     123 H         -5.020723   2.391047   -2.160297 H        1 UNL1     0.0524
@<TRIPOS>BOND
     1     1     2    1
     2     1    42    1
     3     2     3    2
     4     3     4    1
     5     4     5    2
     6     5     7    1
     7     6    75    1
     8     6    76    1
     9     6    77    1
    10     7     9   am
    11     9    10    1
    12    10    11    2
    13    10    43    1
    14    11    14    1
    15    11    15    1
    16    12    13   ar
    17    12    27   ar
    18    12    43    1
    19    13    14    1
    20    13    30   ar
    21    14    17    2
    22    15    16    1
    23    16    17    1
    24    16    18    1
    25    16    22    1
    26    18    19    1
    27    19    20    1
    28    20    21    1
    29    21    22    1
    30    23    24    1
    31    23    88    1
    32    23    89    1
    33    24    25    1
    34    24    26    1
    35    24    90    1
    36    25    91    1
    37    25    92    1
    38    25    93    1
    39    26    94    1
    40    26    95    1
    41    26    96    1
    42    27    28   ar
    43    28    29   ar
    44    29    30   ar
    45    29    31    1
    46    30    33    1
    47    31    32    1
    48    32    33    1
    49    32    35    1
    50    34    97    1
    51    34    98    1
    52    34    99    1
    53    35    61    1
    54    36    37    1
    55    36    60    1
    56    37    38    1
    57    38    39    1
    58    39    40    1
    59    40    41    1
    60    41    42    1
    61    45   100    1
    62    47   101    1
    63    47   102    1
    64    47   103    1
    65    48   104    1
    66    49   105    1
    67    49   106    1
    68    49   107    1
    69    50   108    1
    70    51    59    1
    71    52   109    1
    72    52   110    1
    73    52   111    1
    74    53    54    1
    75    54    55    2
    76    54    56    1
    77    56   112    1
    78    56   113    1
    79    56   114    1
    80    57   115    1
    81    57   116    1
    82    57   117    1
    83    58   118    1
    84    58   119    1
    85    58   120    1
    86    59   121    1
    87    59   122    1
    88    59   123    1
    89    60    61    2
    90     1    47    1
    91     1    62    1
    92     2    63    1
    93     3    64    1
    94     4    65    1
    95     5     6    1
    96     7     8    2
    97     9    78    1
    98    15    79    1
    99    18    80    1
   100    18    81    1
   101    19    82    1
   102    19    83    1
   103    20    23    1
   104    21    84    1
   105    21    85    1
   106    22    86    1
   107    22    87    1
   108    27    45    1
   109    28    34    1
   110    32    58    1
   111    33    46    2
   112    36    51    1
   113    36    66    1
   114    37    52    1
   115    37    67    1
   116    38    53    1
   117    38    68    1
   118    42    48    1
   119    42    72    1
   120    43    44    2
   121    60    73    1
   122    61    74    1
   123    39    69    1
   124    39    57    1
   125    40    70    1
   126    40    50    1
   127    41    71    1
   128    41    49    1
