@<TRIPOS>MOLECULE
*****
 123 128 0 0 0
SMALL
GASTEIGER

@<TRIPOS>ATOM
     1 C         4.644254   2.75787   -0.914777 C.3        1 UNL1     0.0009
     2 C         6.425554   2.63976   -1.414832 C.2        1 UNL1     -0.0787
     3 C         7.830097   2.622036   -1.064128 C.2        1 UNL1     -0.0649
     4 C         9.152963   2.334756   -2.080913 C.2        1 UNL1     -0.0542
     5 C         10.516402   1.953377   -2.132508 C.2        1 UNL1     0.0115
     6 C         11.781346   1.690952   -1.269738 C.3        1 UNL1     -0.0348
     7 C         11.128985   1.446217   -3.526968 C.2        1 UNL1     0.2441
     8 O         11.83142   2.149396   -4.240165 O.2        1 UNL1     -0.2702
     9 N         11.02251   0.062094   -3.74837 N.am        1 UNL1     -0.2772
     10 C         9.823438   -0.236554   -4.353643 C.2        1 UNL1     0.1049
     11 C         8.779607   -0.350648   -3.55263 C.2        1 UNL1     0.0801
     12 C         8.340486   0.430757   -6.254402 C.ar        1 UNL1     0.0753
     13 C         7.276721   0.495475   -5.298983 C.ar        1 UNL1     0.0305
     14 C         7.435115   -0.021111   -3.941374 C.2        1 UNL1     0.0924
     15 N         8.724094   -0.430184   -2.212063 N.pl3        1 UNL1     -0.3170
     16 C         7.36281   -0.717163   -1.844907 C.3        1 UNL1     0.1275
     17 N         6.538019   -0.133373   -2.965903 N.2        1 UNL1     -0.2557
     18 C         7.181126   -2.229664   -1.928772 C.3        1 UNL1     0.0016
     19 C         8.223506   -2.894509   -1.04389 C.3        1 UNL1     0.0026
     20 N         8.048409   -2.420692   0.322077 N.3        1 UNL1     -0.3018
     21 C         8.144303   -0.969606   0.493897 C.3        1 UNL1     0.0026
     22 C         7.085423   -0.322329   -0.400362 C.3        1 UNL1     0.0016
     23 C         8.785567   -3.207431   1.290728 C.3        1 UNL1     0.0012
     24 C         8.159031   -4.602735   1.440177 C.3        1 UNL1     -0.0339
     25 C         8.283468   -5.12363   2.881441 C.3        1 UNL1     -0.0615
     26 C         6.712391   -4.576207   0.978323 C.3        1 UNL1     -0.0615
     27 C         8.144955   0.813635   -7.579276 C.ar        1 UNL1     0.1347
     28 C         6.924549   1.238393   -8.073481 C.ar        1 UNL1     0.0342
     29 C         5.904499   1.340563   -7.10383 C.ar        1 UNL1     0.1435
     30 C         6.095417   0.994936   -5.765431 C.ar        1 UNL1     0.0774
     31 O         4.631638   1.634221   -7.448209 O.3        1 UNL1     -0.4436
     32 C         3.842784   1.189661   -6.33423 C.3        1 UNL1     0.3143
     33 C         4.794688   1.175493   -5.155293 C.2        1 UNL1     0.2504
     34 C         6.576975   1.423458   -9.524358 C.3        1 UNL1     -0.0327
     35 O         2.867299   2.205628   -6.070618 O.2        1 UNL1     -0.4528
     36 C         -0.150232   0.403957   -4.636544 C.3        1 UNL1     0.0854
     37 C         -0.244074   -0.527777   -3.367454 C.3        1 UNL1     0.0236
     38 C         -1.342195   -0.086946   -2.285076 C.3        1 UNL1     0.1131
     39 C         -1.371941   1.404758   -1.759526 C.3        1 UNL1     0.0200
     40 C         0.045712   2.189237   -1.362927 C.3        1 UNL1     0.0661
     41 C         1.270839   1.580895   -0.359635 C.3        1 UNL1     0.0091
     42 C         3.085972   1.842844   -0.405221 C.3        1 UNL1     0.0661
     43 C         9.634928   -0.142174   -5.808947 C.2        1 UNL1     0.2131
     44 O         10.46203   -0.609208   -6.570865 O.2        1 UNL1     -0.2851
     45 O         9.244076   0.763517   -8.434179 O.3        1 UNL1     -0.5056
     46 O         4.53937   1.306233   -3.979039 O.2        1 UNL1     -0.2836
     47 C         4.282136   4.223097   -0.551512 C.3        1 UNL1     -0.0566
     48 O         3.196355   2.125479   1.046347 O.3        1 UNL1     -0.3909
     49 C         1.043804   0.099588   -0.155483 C.3        1 UNL1     -0.0577
     50 O         0.614357   2.803127   -2.502008 O.3        1 UNL1     -0.3910
     51 O         -0.907385   1.592057   -4.585865 O.3        1 UNL1     -0.3753
     52 C         1.155674   -1.086724   -2.951242 C.3        1 UNL1     -0.0564
     53 O         -1.657532   -1.155803   -1.279872 O.3        1 UNL1     -0.4608
     54 C         -2.911407   -1.483401   -0.834446 C.2        1 UNL1     0.3042
     55 O         -3.450951   -2.588653   -0.868371 O.2        1 UNL1     -0.2512
     56 C         -3.640253   -0.337145   -0.192889 C.3        1 UNL1     0.0332
     57 C         -2.445765   2.203384   -2.635467 C.3        1 UNL1     -0.0567
     58 C         3.418886   -0.263515   -6.650646 C.3        1 UNL1     0.0210
     59 C         -0.761844   2.444437   -5.720824 C.3        1 UNL1     0.0372
     60 C         1.231433   0.79197   -5.031013 C.2        1 UNL1     -0.0208
     61 C         1.727074   1.976553   -5.391356 C.2        1 UNL1     0.0882
     62 H         4.360065   2.616324   -1.964497 H        1 UNL1     0.0365
     63 H         6.3301   2.608205   -2.502197 H        1 UNL1     0.0576
     64 H         8.160356   2.635779   -0.023048 H        1 UNL1     0.0615
     65 H         8.732211   2.42041   -3.086454 H        1 UNL1     0.0622
     66 H         -0.53704   -0.212122   -5.460482 H        1 UNL1     0.0645
     67 H         -0.681118   -1.46468   -3.754449 H        1 UNL1     0.0362
     68 H         -2.253934   -0.201028   -2.891078 H        1 UNL1     0.0741
     69 H         -1.927698   1.435908   -0.831855 H        1 UNL1     0.0359
     70 H         -0.361315   3.0303   -0.769628 H        1 UNL1     0.0600
     71 H         0.941034   1.987565   0.616482 H        1 UNL1     0.0348
     72 H         2.64592   2.667556   -0.984461 H        1 UNL1     0.0602
     73 H         1.827707   -0.08199   -5.119902 H        1 UNL1     0.0628
     74 H         1.202022   2.925435   -5.276546 H        1 UNL1     0.1022
     75 H         11.945232   2.528412   -0.549434 H        1 UNL1     0.0279
     76 H         11.750997   0.822203   -0.615961 H        1 UNL1     0.0279
     77 H         12.710925   1.724742   -1.85663 H        1 UNL1     0.0279
     78 H         11.046817   -0.429665   -2.857494 H        1 UNL1     0.1553
     79 H         9.506826   -0.680136   -1.636053 H        1 UNL1     0.1484
     80 H         6.16336   -2.485702   -1.610397 H        1 UNL1     0.0317
     81 H         7.283775   -2.579427   -2.961623 H        1 UNL1     0.0317
     82 H         9.245221   -2.700565   -1.402213 H        1 UNL1     0.0428
     83 H         8.077124   -3.972397   -1.119912 H        1 UNL1     0.0428
     84 H         7.930198   -0.633505   1.513214 H        1 UNL1     0.0428
     85 H         9.161101   -0.60127   0.299558 H        1 UNL1     0.0428
     86 H         7.094603   0.72237   -0.150347 H        1 UNL1     0.0317
     87 H         6.084514   -0.648278   -0.092086 H        1 UNL1     0.0317
     88 H         9.814088   -3.32354   0.924727 H        1 UNL1     0.0429
     89 H         8.844829   -2.694177   2.259145 H        1 UNL1     0.0429
     90 H         8.674441   -5.301495   0.770625 H        1 UNL1     0.0308
     91 H         8.002118   -4.355235   3.607741 H        1 UNL1     0.0233
     92 H         7.654431   -6.004543   3.029475 H        1 UNL1     0.0233
     93 H         9.3065   -5.433716   3.126568 H        1 UNL1     0.0233
     94 H         6.468196   -3.594822   0.557505 H        1 UNL1     0.0233
     95 H         6.555501   -5.326133   0.197965 H        1 UNL1     0.0233
     96 H         6.025752   -4.77821   1.805179 H        1 UNL1     0.0233
     97 H         6.002796   0.588839   -9.915459 H        1 UNL1     0.0280
     98 H         5.960968   2.316656   -9.691658 H        1 UNL1     0.0280
     99 H         7.502106   1.514236   -10.1168 H        1 UNL1     0.0280
     100 H         9.601092   -0.097655   -8.562808 H        1 UNL1     0.2922
     101 H         3.382525   4.237852   0.063417 H        1 UNL1     0.0236
     102 H         4.192692   4.87114   -1.422732 H        1 UNL1     0.0236
     103 H         5.056385   4.698189   0.073804 H        1 UNL1     0.0236
     104 H         3.244663   3.095427   1.155144 H        1 UNL1     0.2098
     105 H         1.313515   -0.517873   -1.0086 H        1 UNL1     0.0234
     106 H         1.47946   -0.306311   0.757412 H        1 UNL1     0.0234
     107 H         0.0   0.0   0.0 H        1 UNL1     0.0234
     108 H         1.532873   3.043886   -2.273683 H        1 UNL1     0.2098
     109 H         1.250662   -1.201778   -1.862458 H        1 UNL1     0.0234
     110 H         1.404626   -2.033354   -3.442831 H        1 UNL1     0.0234
     111 H         1.967037   -0.409915   -3.250519 H        1 UNL1     0.0234
     112 H         -4.623428   -0.668947   0.154414 H        1 UNL1     0.0342
     113 H         -3.068555   0.108147   0.619957 H        1 UNL1     0.0342
     114 H         -3.796468   0.439356   -0.954341 H        1 UNL1     0.0342
     115 H         -2.95445   2.980748   -2.048839 H        1 UNL1     0.0234
     116 H         -2.026917   2.682752   -3.522497 H        1 UNL1     0.0234
     117 H         -3.301167   1.58366   -2.955108 H        1 UNL1     0.0234
     118 H         2.429685   -0.309871   -7.138844 H        1 UNL1     0.0309
     119 H         4.147889   -0.799182   -7.266941 H        1 UNL1     0.0309
     120 H         3.283208   -0.868   -5.747155 H        1 UNL1     0.0309
     121 H         0.160025   3.010862   -5.591689 H        1 UNL1     0.0524
     122 H         -0.673468   1.876542   -6.661952 H        1 UNL1     0.0524
     123 H         -1.609495   3.119794   -5.794819 H        1 UNL1     0.0524
@<TRIPOS>BOND
     1     1     2    1
     2     1    42    1
     3     2     3    2
     4     3     4    1
     5     4     5    2
     6     5     7    1
     7     6    75    1
     8     6    76    1
     9     6    77    1
    10     7     9   am
    11     9    10    1
    12    10    11    2
    13    10    43    1
    14    11    14    1
    15    11    15    1
    16    12    13   ar
    17    12    27   ar
    18    12    43    1
    19    13    14    1
    20    13    30   ar
    21    14    17    2
    22    15    16    1
    23    16    17    1
    24    16    18    1
    25    16    22    1
    26    18    19    1
    27    19    20    1
    28    20    21    1
    29    21    22    1
    30    23    24    1
    31    23    88    1
    32    23    89    1
    33    24    25    1
    34    24    26    1
    35    24    90    1
    36    25    91    1
    37    25    92    1
    38    25    93    1
    39    26    94    1
    40    26    95    1
    41    26    96    1
    42    27    28   ar
    43    28    29   ar
    44    29    30   ar
    45    29    31    1
    46    30    33    1
    47    31    32    1
    48    32    33    1
    49    32    35    1
    50    34    97    1
    51    34    98    1
    52    34    99    1
    53    35    61    1
    54    36    37    1
    55    36    60    1
    56    37    38    1
    57    38    39    1
    58    39    40    1
    59    40    41    1
    60    41    42    1
    61    45   100    1
    62    47   101    1
    63    47   102    1
    64    47   103    1
    65    48   104    1
    66    49   105    1
    67    49   106    1
    68    49   107    1
    69    50   108    1
    70    51    59    1
    71    52   109    1
    72    52   110    1
    73    52   111    1
    74    53    54    1
    75    54    55    2
    76    54    56    1
    77    56   112    1
    78    56   113    1
    79    56   114    1
    80    57   115    1
    81    57   116    1
    82    57   117    1
    83    58   118    1
    84    58   119    1
    85    58   120    1
    86    59   121    1
    87    59   122    1
    88    59   123    1
    89    60    61    2
    90     1    47    1
    91     1    62    1
    92     2    63    1
    93     3    64    1
    94     4    65    1
    95     5     6    1
    96     7     8    2
    97     9    78    1
    98    15    79    1
    99    18    80    1
   100    18    81    1
   101    19    82    1
   102    19    83    1
   103    20    23    1
   104    21    84    1
   105    21    85    1
   106    22    86    1
   107    22    87    1
   108    27    45    1
   109    28    34    1
   110    32    58    1
   111    33    46    2
   112    36    51    1
   113    36    66    1
   114    37    52    1
   115    37    67    1
   116    38    53    1
   117    38    68    1
   118    42    48    1
   119    42    72    1
   120    43    44    2
   121    60    73    1
   122    61    74    1
   123    39    69    1
   124    39    57    1
   125    40    70    1
   126    40    50    1
   127    41    71    1
   128    41    49    1
