@<TRIPOS>MOLECULE
*****
 123 128 0 0 0
SMALL
GASTEIGER

@<TRIPOS>ATOM
     1 C         5.135872   1.826397   0.535131 C.3        1 UNL1     0.0009
     2 C         6.565655   2.658685   -0.30156 C.2        1 UNL1     -0.0787
     3 C         7.853441   2.583527   -0.958831 C.2        1 UNL1     -0.0649
     4 C         8.716747   3.835654   -1.702631 C.2        1 UNL1     -0.0542
     5 C         9.738515   4.148499   -2.63279 C.2        1 UNL1     0.0115
     6 C         10.882208   3.54471   -3.493445 C.3        1 UNL1     -0.0348
     7 C         9.814945   5.635894   -3.231794 C.2        1 UNL1     0.2441
     8 O         10.623349   6.468435   -2.844645 O.2        1 UNL1     -0.2702
     9 N         9.069644   5.836705   -4.406678 N.am        1 UNL1     -0.2772
     10 C         7.778952   6.201963   -4.100046 C.2        1 UNL1     0.1049
     11 C         6.946385   5.216185   -3.81845 C.2        1 UNL1     0.0801
     12 C         6.4461   7.781627   -2.690968 C.ar        1 UNL1     0.0753
     13 C         5.701614   6.639981   -2.253941 C.ar        1 UNL1     0.0305
     14 C         5.843249   5.339302   -2.904498 C.2        1 UNL1     0.0924
     15 N         7.090734   3.890032   -3.982794 N.pl3        1 UNL1     -0.3170
     16 C         5.828216   3.269767   -3.680185 C.3        1 UNL1     0.1275
     17 N         5.17034   4.210395   -2.700316 N.2        1 UNL1     -0.2557
     18 C         4.983239   3.321547   -4.94945 C.3        1 UNL1     0.0016
     19 C         5.756384   2.654563   -6.075936 C.3        1 UNL1     0.0026
     20 N         6.04526   1.279017   -5.694554 N.3        1 UNL1     -0.3018
     21 C         6.802501   1.124653   -4.450718 C.3        1 UNL1     0.0026
     22 C         6.005447   1.79773   -3.331983 C.3        1 UNL1     0.0016
     23 C         6.510051   0.471702   -6.804894 C.3        1 UNL1     0.0012
     24 C         5.365385   0.208957   -7.796086 C.3        1 UNL1     -0.0339
     25 C         5.454567   1.13868   -9.017445 C.3        1 UNL1     -0.0615
     26 C         5.356975   -1.253417   -8.206175 C.3        1 UNL1     -0.0615
     27 C         6.218066   9.043442   -2.146962 C.ar        1 UNL1     0.1347
     28 C         5.248373   9.293564   -1.192402 C.ar        1 UNL1     0.0342
     29 C         4.561388   8.146216   -0.74206 C.ar        1 UNL1     0.1435
     30 C         4.804191   6.870138   -1.251856 C.ar        1 UNL1     0.0774
     31 O         3.51293   8.239608   0.10471 O.3        1 UNL1     -0.4436
     32 C         2.811492   6.996425   -0.048109 C.3        1 UNL1     0.3143
     33 C         3.843726   6.021668   -0.577784 C.2        1 UNL1     0.2504
     34 C         4.777346   10.650486   -0.74856 C.3        1 UNL1     -0.0327
     35 O         2.448673   6.548002   1.263581 O.2        1 UNL1     -0.4528
     36 C         -0.761156   4.567633   0.83553 C.3        1 UNL1     0.0854
     37 C         -1.040676   3.306696   -0.069692 C.3        1 UNL1     0.0236
     38 C         -1.626944   2.032801   0.70827 C.3        1 UNL1     0.1131
     39 C         -0.901955   1.50708   2.012217 C.3        1 UNL1     0.0200
     40 C         0.760977   1.387126   2.064216 C.3        1 UNL1     0.0661
     41 C         1.740164   0.638766   0.898557 C.3        1 UNL1     0.0091
     42 C         3.445734   1.030408   0.348057 C.3        1 UNL1     0.0661
     43 C         7.406913   7.593951   -3.80626 C.2        1 UNL1     0.2131
     44 O         7.797702   8.501487   -4.517878 O.2        1 UNL1     -0.2851
     45 O         7.017269   10.093164   -2.595065 O.3        1 UNL1     -0.5056
     46 O         3.877522   4.817926   -0.452421 O.2        1 UNL1     -0.2836
     47 C         5.529001   1.396374   1.974058 C.3        1 UNL1     -0.0566
     48 O         3.915603   -0.373938   0.426473 O.3        1 UNL1     -0.3909
     49 C         0.918204   0.399087   -0.34821 C.3        1 UNL1     -0.0577
     50 O         1.339472   2.612294   2.466745 O.3        1 UNL1     -0.3910
     51 O         -0.891807   4.369532   2.225176 O.3        1 UNL1     -0.3753
     52 C         0.014014   3.16785   -1.215685 C.3        1 UNL1     -0.0564
     53 O         -2.207152   0.988829   -0.200469 O.3        1 UNL1     -0.4608
     54 C         -2.39214   -0.33058   0.120264 C.2        1 UNL1     0.3042
     55 O         -1.728818   -1.292805   -0.264397 O.2        1 UNL1     -0.2512
     56 C         -3.509597   -0.560986   1.097462 C.3        1 UNL1     0.0332
     57 C         -1.641911   2.158889   3.271497 C.3        1 UNL1     -0.0567
     58 C         1.740066   7.229893   -1.138553 C.3        1 UNL1     0.0210
     59 C         -1.228348   5.540055   2.968467 C.3        1 UNL1     0.0372
     60 C         0.559452   5.218326   0.616998 C.2        1 UNL1     -0.0208
     61 C         1.45954   5.663584   1.494682 C.2        1 UNL1     0.0882
     62 H         4.64413   2.802651   0.623612 H        1 UNL1     0.0365
     63 H         6.282351   3.707724   -0.193274 H        1 UNL1     0.0576
     64 H         8.327566   1.624937   -1.181134 H        1 UNL1     0.0615
     65 H         8.213137   4.741752   -1.355001 H        1 UNL1     0.0622
     66 H         -1.515176   5.30397   0.523586 H        1 UNL1     0.0645
     67 H         -1.906723   3.605463   -0.685534 H        1 UNL1     0.0362
     68 H         -2.583074   2.453286   1.055447 H        1 UNL1     0.0741
     69 H         -1.219056   0.490058   2.200691 H        1 UNL1     0.0359
     70 H         0.876967   0.724487   2.943145 H        1 UNL1     0.0600
     71 H         1.796687   -0.38359   1.321111 H        1 UNL1     0.0348
     72 H         3.325579   1.512319   1.329199 H        1 UNL1     0.0602
     73 H         0.681357   5.422232   -0.417802 H        1 UNL1     0.0628
     74 H         1.437951   5.447665   2.563397 H        1 UNL1     0.1022
     75 H         10.892152   2.431414   -3.406794 H        1 UNL1     0.0279
     76 H         10.811834   3.695395   -4.568345 H        1 UNL1     0.0279
     77 H         11.88171   3.80075   -3.112473 H        1 UNL1     0.0279
     78 H         9.02476   4.968366   -4.935876 H        1 UNL1     0.1553
     79 H         7.766782   3.475304   -4.597524 H        1 UNL1     0.1484
     80 H         4.028397   2.814863   -4.764213 H        1 UNL1     0.0317
     81 H         4.742409   4.355919   -5.217268 H        1 UNL1     0.0317
     82 H         6.680354   3.201386   -6.31505 H        1 UNL1     0.0428
     83 H         5.136565   2.704179   -6.97171 H        1 UNL1     0.0428
     84 H         6.936893   0.082257   -4.145498 H        1 UNL1     0.0428
     85 H         7.827436   1.509096   -4.545729 H        1 UNL1     0.0428
     86 H         6.519475   1.551157   -2.421507 H        1 UNL1     0.0317
     87 H         5.032709   1.304384   -3.215851 H        1 UNL1     0.0317
     88 H         7.301188   1.028238   -7.324186 H        1 UNL1     0.0429
     89 H         6.954879   -0.468882   -6.455315 H        1 UNL1     0.0429
     90 H         4.407148   0.384439   -7.292896 H        1 UNL1     0.0308
     91 H         6.415249   1.031073   -9.529904 H        1 UNL1     0.0233
     92 H         4.646619   0.929019   -9.722337 H        1 UNL1     0.0233
     93 H         5.355996   2.196496   -8.745152 H        1 UNL1     0.0233
     94 H         4.710231   -1.397368   -9.078434 H        1 UNL1     0.0233
     95 H         6.367229   -1.570621   -8.479544 H        1 UNL1     0.0233
     96 H         4.993115   -1.892704   -7.396925 H        1 UNL1     0.0233
     97 H         3.941245   10.586004   -0.058627 H        1 UNL1     0.0280
     98 H         5.561239   11.208039   -0.219502 H        1 UNL1     0.0280
     99 H         4.45676   11.235181   -1.626314 H        1 UNL1     0.0280
     100 H         6.543232   10.865752   -2.848083 H        1 UNL1     0.2922
     101 H         4.644676   1.05084   2.509063 H        1 UNL1     0.0236
     102 H         6.061843   2.172228   2.522797 H        1 UNL1     0.0236
     103 H         6.212801   0.531152   1.97546 H        1 UNL1     0.0236
     104 H         4.243144   -0.525097   1.33468 H        1 UNL1     0.2098
     105 H         0.695541   1.297183   -0.918873 H        1 UNL1     0.0234
     106 H         1.304272   -0.380036   -1.00536 H        1 UNL1     0.0234
     107 H         0.0   -0.0   0.0 H        1 UNL1     0.0234
     108 H         1.189912   3.254322   1.74619 H        1 UNL1     0.2098
     109 H         1.039124   3.08092   -0.829285 H        1 UNL1     0.0234
     110 H         -0.194162   2.332888   -1.893361 H        1 UNL1     0.0234
     111 H         0.017292   4.048597   -1.871597 H        1 UNL1     0.0234
     112 H         -3.58996   -1.628047   1.326084 H        1 UNL1     0.0342
     113 H         -3.3858   0.025179   2.006818 H        1 UNL1     0.0342
     114 H         -4.449775   -0.246272   0.623981 H        1 UNL1     0.0342
     115 H         -2.726766   1.987492   3.241466 H        1 UNL1     0.0234
     116 H         -1.278947   1.797478   4.2357 H        1 UNL1     0.0234
     117 H         -1.600657   3.261654   3.283682 H        1 UNL1     0.0234
     118 H         0.82693   7.69657   -0.729405 H        1 UNL1     0.0309
     119 H         2.104668   7.831344   -1.977317 H        1 UNL1     0.0309
     120 H         1.372278   6.294198   -1.573655 H        1 UNL1     0.0309
     121 H         -0.905658   5.381525   3.997105 H        1 UNL1     0.0524
     122 H         -0.709931   6.437806   2.592534 H        1 UNL1     0.0524
     123 H         -2.300471   5.711722   2.934187 H        1 UNL1     0.0524
@<TRIPOS>BOND
     1     1     2    1
     2     1    42    1
     3     2     3    2
     4     3     4    1
     5     4     5    2
     6     5     7    1
     7     6    75    1
     8     6    76    1
     9     6    77    1
    10     7     9   am
    11     9    10    1
    12    10    11    2
    13    10    43    1
    14    11    14    1
    15    11    15    1
    16    12    13   ar
    17    12    27   ar
    18    12    43    1
    19    13    14    1
    20    13    30   ar
    21    14    17    2
    22    15    16    1
    23    16    17    1
    24    16    18    1
    25    16    22    1
    26    18    19    1
    27    19    20    1
    28    20    21    1
    29    21    22    1
    30    23    24    1
    31    23    88    1
    32    23    89    1
    33    24    25    1
    34    24    26    1
    35    24    90    1
    36    25    91    1
    37    25    92    1
    38    25    93    1
    39    26    94    1
    40    26    95    1
    41    26    96    1
    42    27    28   ar
    43    28    29   ar
    44    29    30   ar
    45    29    31    1
    46    30    33    1
    47    31    32    1
    48    32    33    1
    49    32    35    1
    50    34    97    1
    51    34    98    1
    52    34    99    1
    53    35    61    1
    54    36    37    1
    55    36    60    1
    56    37    38    1
    57    38    39    1
    58    39    40    1
    59    40    41    1
    60    41    42    1
    61    45   100    1
    62    47   101    1
    63    47   102    1
    64    47   103    1
    65    48   104    1
    66    49   105    1
    67    49   106    1
    68    49   107    1
    69    50   108    1
    70    51    59    1
    71    52   109    1
    72    52   110    1
    73    52   111    1
    74    53    54    1
    75    54    55    2
    76    54    56    1
    77    56   112    1
    78    56   113    1
    79    56   114    1
    80    57   115    1
    81    57   116    1
    82    57   117    1
    83    58   118    1
    84    58   119    1
    85    58   120    1
    86    59   121    1
    87    59   122    1
    88    59   123    1
    89    60    61    2
    90     1    47    1
    91     1    62    1
    92     2    63    1
    93     3    64    1
    94     4    65    1
    95     5     6    1
    96     7     8    2
    97     9    78    1
    98    15    79    1
    99    18    80    1
   100    18    81    1
   101    19    82    1
   102    19    83    1
   103    20    23    1
   104    21    84    1
   105    21    85    1
   106    22    86    1
   107    22    87    1
   108    27    45    1
   109    28    34    1
   110    32    58    1
   111    33    46    2
   112    36    51    1
   113    36    66    1
   114    37    52    1
   115    37    67    1
   116    38    53    1
   117    38    68    1
   118    42    48    1
   119    42    72    1
   120    43    44    2
   121    60    73    1
   122    61    74    1
   123    39    69    1
   124    39    57    1
   125    40    70    1
   126    40    50    1
   127    41    71    1
   128    41    49    1
