@<TRIPOS>MOLECULE
*****
 123 128 0 0 0
SMALL
GASTEIGER

@<TRIPOS>ATOM
     1 C         5.166488   1.759972   0.457356 C.3        1 UNL1     0.0009
     2 C         6.595935   2.568846   -0.40255 C.2        1 UNL1     -0.0787
     3 C         7.873698   2.473161   -1.076503 C.2        1 UNL1     -0.0649
     4 C         8.743615   3.70989   -1.838148 C.2        1 UNL1     -0.0542
     5 C         9.756937   4.004383   -2.783416 C.2        1 UNL1     0.0115
     6 C         10.880858   3.381044   -3.656097 C.3        1 UNL1     -0.0348
     7 C         9.845195   5.487628   -3.391019 C.2        1 UNL1     0.2441
     8 O         10.669743   6.311161   -3.018945 O.2        1 UNL1     -0.2702
     9 N         9.086995   5.692589   -4.556899 N.am        1 UNL1     -0.2772
     10 C         7.805509   6.076644   -4.235002 C.2        1 UNL1     0.1049
     11 C         6.9637   5.103532   -3.937292 C.2        1 UNL1     0.0801
     12 C         6.512822   7.681015   -2.816452 C.ar        1 UNL1     0.0753
     13 C         5.759076   6.55164   -2.363696 C.ar        1 UNL1     0.0305
     14 C         5.874626   5.245967   -3.009387 C.2        1 UNL1     0.0924
     15 N         7.088126   3.774763   -4.096725 N.pl3        1 UNL1     -0.3170
     16 C         5.821601   3.172997   -3.77416 C.3        1 UNL1     0.1275
     17 N         5.189501   4.127214   -2.790472 N.2        1 UNL1     -0.2557
     18 C         4.960493   3.22981   -5.03232 C.3        1 UNL1     0.0016
     19 C         5.709533   2.546935   -6.16555 C.3        1 UNL1     0.0026
     20 N         5.985099   1.169547   -5.780981 N.3        1 UNL1     -0.3018
     21 C         6.756778   1.011212   -4.546554 C.3        1 UNL1     0.0026
     22 C         5.98381   1.700461   -3.420787 C.3        1 UNL1     0.0016
     23 C         6.424184   0.350572   -6.893244 C.3        1 UNL1     0.0012
     24 C         5.26296   0.098292   -7.867755 C.3        1 UNL1     -0.0339
     25 C         5.348202   1.020665   -9.094955 C.3        1 UNL1     -0.0615
     26 C         5.22955   -1.365854   -8.270175 C.3        1 UNL1     -0.0615
     27 C         6.308944   8.948458   -2.275952 C.ar        1 UNL1     0.1347
     28 C         5.355528   9.216297   -1.309872 C.ar        1 UNL1     0.0342
     29 C         4.659374   8.080515   -0.844539 C.ar        1 UNL1     0.1435
     30 C         4.878285   6.798782   -1.350956 C.ar        1 UNL1     0.0774
     31 O         3.623674   8.192162   0.015615 O.3        1 UNL1     -0.4436
     32 C         2.903725   6.957757   -0.121467 C.3        1 UNL1     0.3143
     33 C         3.915682   5.966627   -0.659812 C.2        1 UNL1     0.2504
     34 C         4.90863   10.5816   -0.866782 C.3        1 UNL1     -0.0327
     35 O         2.552527   6.520754   1.197222 O.2        1 UNL1     -0.4528
     36 C         -0.688884   4.581521   0.822099 C.3        1 UNL1     0.0854
     37 C         -0.997289   3.319971   -0.072832 C.3        1 UNL1     0.0236
     38 C         -1.590051   2.05793   0.719398 C.3        1 UNL1     0.1131
     39 C         -0.854771   1.529006   2.016268 C.3        1 UNL1     0.0200
     40 C         0.806959   1.387016   2.046753 C.3        1 UNL1     0.0661
     41 C         1.760395   0.619815   0.87203 C.3        1 UNL1     0.0091
     42 C         3.463526   0.985809   0.29688 C.3        1 UNL1     0.0661
     43 C         7.456043   7.474937   -3.94345 C.2        1 UNL1     0.2131
     44 O         7.849359   8.373608   -4.664859 O.2        1 UNL1     -0.2851
     45 O         7.116022   9.985129   -2.740037 O.3        1 UNL1     -0.5056
     46 O         3.935082   4.763176   -0.528726 O.2        1 UNL1     -0.2836
     47 C         5.57305   1.331858   1.893116 C.3        1 UNL1     -0.0566
     48 O         3.915617   -0.424308   0.376253 O.3        1 UNL1     -0.3909
     49 C         0.91871   0.385002   -0.362443 C.3        1 UNL1     -0.0577
     50 O         1.407086   2.606295   2.435248 O.3        1 UNL1     -0.3910
     51 O         -0.803572   4.392086   2.21436 O.3        1 UNL1     -0.3753
     52 C         0.040035   3.161308   -1.232028 C.3        1 UNL1     -0.0564
     53 O         -2.196241   1.01734   -0.176164 O.3        1 UNL1     -0.4608
     54 C         -2.394517   -0.297861   0.153779 C.2        1 UNL1     0.3042
     55 O         -1.812431   -1.279278   -0.306478 O.2        1 UNL1     -0.2512
     56 C         -3.408416   -0.498126   1.244016 C.3        1 UNL1     0.0332
     57 C         -1.569055   2.196921   3.281915 C.3        1 UNL1     -0.0567
     58 C         1.821024   7.200164   -1.198745 C.3        1 UNL1     0.0210
     59 C         -1.114491   5.570691   2.956038 C.3        1 UNL1     0.0372
     60 C         0.63725   5.213348   0.582674 C.2        1 UNL1     -0.0208
     61 C         1.554858   5.650841   1.446005 C.2        1 UNL1     0.0882
     62 H         4.689046   2.743161   0.547354 H        1 UNL1     0.0365
     63 H         6.32813   3.622115   -0.295897 H        1 UNL1     0.0576
     64 H         8.331972   1.507206   -1.300165 H        1 UNL1     0.0615
     65 H         8.256837   4.624375   -1.48851 H        1 UNL1     0.0622
     66 H         -1.437113   5.326349   0.516435 H        1 UNL1     0.0645
     67 H         -1.86743   3.62727   -0.678623 H        1 UNL1     0.0362
     68 H         -2.535755   2.49292   1.0771 H        1 UNL1     0.0741
     69 H         -1.182869   0.517277   2.214168 H        1 UNL1     0.0359
     70 H         0.925839   0.727249   2.927454 H        1 UNL1     0.0600
     71 H         1.808913   -0.401098   1.299043 H        1 UNL1     0.0348
     72 H         3.362944   1.474149   1.277044 H        1 UNL1     0.0602
     73 H         0.748017   5.410466   -0.45469 H        1 UNL1     0.0628
     74 H         1.544682   5.440535   2.516008 H        1 UNL1     0.1022
     75 H         10.909936   2.27248   -3.524663 H        1 UNL1     0.0279
     76 H         10.773467   3.486488   -4.733324 H        1 UNL1     0.0279
     77 H         11.888323   3.665823   -3.319029 H        1 UNL1     0.0279
     78 H         9.023453   4.822316   -5.080984 H        1 UNL1     0.1553
     79 H         7.750297   3.347959   -4.718256 H        1 UNL1     0.1484
     80 H         4.001535   2.736905   -4.831793 H        1 UNL1     0.0317
     81 H         4.729929   4.265978   -5.302222 H        1 UNL1     0.0317
     82 H         6.637439   3.080123   -6.419744 H        1 UNL1     0.0428
     83 H         5.078508   2.600418   -7.053242 H        1 UNL1     0.0428
     84 H         6.881316   -0.031367   -4.237796 H        1 UNL1     0.0428
     85 H         7.785391   1.381395   -4.657169 H        1 UNL1     0.0428
     86 H         6.506631   1.451534   -2.515976 H        1 UNL1     0.0317
     87 H         5.006215   1.220789   -3.289189 H        1 UNL1     0.0317
     88 H         7.215663   0.893863   -7.425869 H        1 UNL1     0.0429
     89 H         6.861053   -0.594148   -6.544785 H        1 UNL1     0.0429
     90 H         4.313965   0.289106   -7.352768 H        1 UNL1     0.0308
     91 H         6.300423   0.89764   -9.61959 H        1 UNL1     0.0233
     92 H         4.528173   0.818366   -9.787947 H        1 UNL1     0.0233
     93 H         5.267408   2.081046   -8.826814 H        1 UNL1     0.0233
     94 H         4.547642   -1.509833   -9.115224 H        1 UNL1     0.0233
     95 H         6.226189   -1.690441   -8.58213 H        1 UNL1     0.0233
     96 H         4.89454   -1.999228   -7.443994 H        1 UNL1     0.0233
     97 H         4.113867   10.53053   -0.128559 H        1 UNL1     0.0280
     98 H         5.720822   11.150062   -0.395133 H        1 UNL1     0.0280
     99 H         4.53692   11.148407   -1.736067 H        1 UNL1     0.0280
     100 H         6.645543   10.739302   -3.049061 H        1 UNL1     0.2922
     101 H         4.711311   0.907984   2.40828 H        1 UNL1     0.0236
     102 H         6.036928   2.13502   2.46472 H        1 UNL1     0.0236
     103 H         6.321826   0.52223   1.887451 H        1 UNL1     0.0236
     104 H         4.335701   -0.55066   1.249486 H        1 UNL1     0.2098
     105 H         0.700442   1.283162   -0.934701 H        1 UNL1     0.0234
     106 H         1.285522   -0.40248   -1.020659 H        1 UNL1     0.0234
     107 H         0.0   -0.0   0.0 H        1 UNL1     0.0234
     108 H         1.217628   3.259225   1.734137 H        1 UNL1     0.2098
     109 H         1.068969   3.062553   -0.85886 H        1 UNL1     0.0234
     110 H         -0.188311   2.325862   -1.902573 H        1 UNL1     0.0234
     111 H         0.046295   4.038667   -1.892443 H        1 UNL1     0.0234
     112 H         -3.503275   -1.563959   1.472812 H        1 UNL1     0.0342
     113 H         -3.166101   0.073474   2.138667 H        1 UNL1     0.0342
     114 H         -4.381663   -0.144629   0.876601 H        1 UNL1     0.0342
     115 H         -2.640475   1.956545   3.320206 H        1 UNL1     0.0234
     116 H         -1.133453   1.908936   4.24075 H        1 UNL1     0.0234
     117 H         -1.599381   3.299273   3.238991 H        1 UNL1     0.0234
     118 H         0.919752   7.681072   -0.779886 H        1 UNL1     0.0309
     119 H         2.182371   7.792503   -2.045365 H        1 UNL1     0.0309
     120 H         1.434995   6.26734   -1.6241 H        1 UNL1     0.0309
     121 H         -0.278629   6.260741   2.844134 H        1 UNL1     0.0524
     122 H         -2.016949   6.078055   2.576316 H        1 UNL1     0.0524
     123 H         -1.26171   5.327133   4.004417 H        1 UNL1     0.0524
@<TRIPOS>BOND
     1     1     2    1
     2     1    42    1
     3     2     3    2
     4     3     4    1
     5     4     5    2
     6     5     7    1
     7     6    75    1
     8     6    76    1
     9     6    77    1
    10     7     9   am
    11     9    10    1
    12    10    11    2
    13    10    43    1
    14    11    14    1
    15    11    15    1
    16    12    13   ar
    17    12    27   ar
    18    12    43    1
    19    13    14    1
    20    13    30   ar
    21    14    17    2
    22    15    16    1
    23    16    17    1
    24    16    18    1
    25    16    22    1
    26    18    19    1
    27    19    20    1
    28    20    21    1
    29    21    22    1
    30    23    24    1
    31    23    88    1
    32    23    89    1
    33    24    25    1
    34    24    26    1
    35    24    90    1
    36    25    91    1
    37    25    92    1
    38    25    93    1
    39    26    94    1
    40    26    95    1
    41    26    96    1
    42    27    28   ar
    43    28    29   ar
    44    29    30   ar
    45    29    31    1
    46    30    33    1
    47    31    32    1
    48    32    33    1
    49    32    35    1
    50    34    97    1
    51    34    98    1
    52    34    99    1
    53    35    61    1
    54    36    37    1
    55    36    60    1
    56    37    38    1
    57    38    39    1
    58    39    40    1
    59    40    41    1
    60    41    42    1
    61    45   100    1
    62    47   101    1
    63    47   102    1
    64    47   103    1
    65    48   104    1
    66    49   105    1
    67    49   106    1
    68    49   107    1
    69    50   108    1
    70    51    59    1
    71    52   109    1
    72    52   110    1
    73    52   111    1
    74    53    54    1
    75    54    55    2
    76    54    56    1
    77    56   112    1
    78    56   113    1
    79    56   114    1
    80    57   115    1
    81    57   116    1
    82    57   117    1
    83    58   118    1
    84    58   119    1
    85    58   120    1
    86    59   121    1
    87    59   122    1
    88    59   123    1
    89    60    61    2
    90     1    47    1
    91     1    62    1
    92     2    63    1
    93     3    64    1
    94     4    65    1
    95     5     6    1
    96     7     8    2
    97     9    78    1
    98    15    79    1
    99    18    80    1
   100    18    81    1
   101    19    82    1
   102    19    83    1
   103    20    23    1
   104    21    84    1
   105    21    85    1
   106    22    86    1
   107    22    87    1
   108    27    45    1
   109    28    34    1
   110    32    58    1
   111    33    46    2
   112    36    51    1
   113    36    66    1
   114    37    52    1
   115    37    67    1
   116    38    53    1
   117    38    68    1
   118    42    48    1
   119    42    72    1
   120    43    44    2
   121    60    73    1
   122    61    74    1
   123    39    69    1
   124    39    57    1
   125    40    70    1
   126    40    50    1
   127    41    71    1
   128    41    49    1
