@<TRIPOS>MOLECULE
*****
 123 128 0 0 0
SMALL
GASTEIGER

@<TRIPOS>ATOM
     1 C         -0.133006   4.037833   -1.284218 C.3        1 UNL1     0.0009
     2 C         -1.539884   4.915547   -2.113284 C.2        1 UNL1     -0.0787
     3 C         -2.142614   5.478613   -3.303124 C.2        1 UNL1     -0.0649
     4 C         -3.696184   6.12935   -3.474351 C.2        1 UNL1     -0.0542
     5 C         -4.716793   6.471027   -4.395596 C.2        1 UNL1     0.0115
     6 C         -5.044855   6.629688   -5.905737 C.3        1 UNL1     -0.0348
     7 C         -6.210362   6.696368   -3.852031 C.2        1 UNL1     0.2441
     8 O         -6.698489   7.80605   -3.688129 O.2        1 UNL1     -0.2702
     9 N         -7.008186   5.539258   -3.825131 N.am        1 UNL1     -0.2772
     10 C         -6.848861   4.873766   -2.631373 C.2        1 UNL1     0.1049
     11 C         -5.801222   4.074142   -2.546086 C.2        1 UNL1     0.0801
     12 C         -6.834854   5.219781   -0.153993 C.ar        1 UNL1     0.0753
     13 C         -5.585719   4.521117   -0.142316 C.ar        1 UNL1     0.0305
     14 C         -5.094796   3.811618   -1.321577 C.2        1 UNL1     0.0924
     15 N         -4.969557   3.634649   -3.506142 N.pl3        1 UNL1     -0.3170
     16 C         -4.100215   2.650625   -2.917758 C.3        1 UNL1     0.1275
     17 N         -4.021755   3.038322   -1.461304 N.2        1 UNL1     -0.2557
     18 C         -4.835041   1.314272   -2.961265 C.3        1 UNL1     0.0016
     19 C         -5.229836   1.022979   -4.400318 C.3        1 UNL1     0.0026
     20 N         -4.024887   0.985202   -5.217447 N.3        1 UNL1     -0.3018
     21 C         -3.217173   2.206375   -5.190937 C.3        1 UNL1     0.0026
     22 C         -2.82785   2.477467   -3.736692 C.3        1 UNL1     0.0016
     23 C         -4.253815   0.424521   -6.534213 C.3        1 UNL1     0.0012
     24 C         -4.523617   -1.085302   -6.437274 C.3        1 UNL1     -0.0339
     25 C         -3.962796   -1.83619   -7.656168 C.3        1 UNL1     -0.0615
     26 C         -3.961644   -1.6323   -5.136597 C.3        1 UNL1     -0.0615
     27 C         -7.353345   5.790744   1.005872 C.ar        1 UNL1     0.1347
     28 C         -6.735369   5.694569   2.239933 C.ar        1 UNL1     0.0342
     29 C         -5.483126   5.044522   2.217804 C.ar        1 UNL1     0.1435
     30 C         -4.934085   4.499188   1.056604 C.ar        1 UNL1     0.0774
     31 O         -4.809038   4.774473   3.356964 O.3        1 UNL1     -0.4436
     32 C         -3.884808   3.737572   2.994325 C.3        1 UNL1     0.3143
     33 C         -3.703984   3.874286   1.496051 C.2        1 UNL1     0.2504
     34 C         -7.347825   6.059404   3.563524 C.3        1 UNL1     -0.0327
     35 O         -2.625519   4.059286   3.597601 O.2        1 UNL1     -0.4528
     36 C         -0.916221   0.738009   4.272515 C.3        1 UNL1     0.0854
     37 C         -0.550871   -0.417696   3.263363 C.3        1 UNL1     0.0236
     38 C         0.993618   -0.849309   3.260539 C.3        1 UNL1     0.1131
     39 C         2.117138   0.254857   3.116356 C.3        1 UNL1     0.0200
     40 C         1.953251   1.486709   2.003647 C.3        1 UNL1     0.0661
     41 C         1.556305   1.299321   0.365072 C.3        1 UNL1     0.0091
     42 C         0.612784   2.39528   -0.763664 C.3        1 UNL1     0.0661
     43 C         -7.603435   5.239219   -1.42331 C.2        1 UNL1     0.2131
     44 O         -8.803574   5.437045   -1.480479 O.2        1 UNL1     -0.2851
     45 O         -8.552306   6.492552   0.89912 O.3        1 UNL1     -0.5056
     46 O         -2.750191   3.5589   0.820281 O.2        1 UNL1     -0.2836
     47 C         1.067435   5.003449   -1.093148 C.3        1 UNL1     -0.0566
     48 O         1.606548   2.310555   -1.861102 O.3        1 UNL1     -0.3909
     49 C         1.044656   -0.106775   0.144614 C.3        1 UNL1     -0.0577
     50 O         1.228975   2.56763   2.555695 O.3        1 UNL1     -0.3910
     51 O         0.172659   1.363346   4.913393 O.3        1 UNL1     -0.3753
     52 C         -1.391508   -0.328826   1.947923 C.3        1 UNL1     -0.0564
     53 O         1.250333   -2.15757   2.571425 O.3        1 UNL1     -0.4608
     54 C         2.343554   -2.447614   1.797687 C.2        1 UNL1     0.3042
     55 O         2.455376   -2.307624   0.58042 O.2        1 UNL1     -0.2512
     56 C         3.525747   -2.935515   2.585776 C.3        1 UNL1     0.0332
     57 C         2.605403   0.641342   4.589584 C.3        1 UNL1     -0.0567
     58 C         -4.594337   2.39586   3.290816 C.3        1 UNL1     0.0210
     59 C         0.316857   1.045624   6.296913 C.3        1 UNL1     0.0372
     60 C         -1.761902   1.823725   3.705765 C.2        1 UNL1     -0.0208
     61 C         -1.658284   3.148559   3.819004 C.2        1 UNL1     0.0882
     62 H         -0.700575   4.054663   -0.345979 H        1 UNL1     0.0365
     63 H         -2.183116   5.1244   -1.255903 H        1 UNL1     0.0576
     64 H         -1.673685   5.378502   -4.284548 H        1 UNL1     0.0615
     65 H         -4.038658   6.260771   -2.44434 H        1 UNL1     0.0622
     66 H         -1.52978   0.248754   5.042075 H        1 UNL1     0.0645
     67 H         -1.028274   -1.313416   3.697336 H        1 UNL1     0.0362
     68 H         1.082155   -1.222685   4.292176 H        1 UNL1     0.0741
     69 H         3.037158   -0.223059   2.807219 H        1 UNL1     0.0359
     70 H         2.999045   1.846817   1.962428 H        1 UNL1     0.0600
     71 H         2.571354   1.232135   -0.073243 H        1 UNL1     0.0348
     72 H         0.933674   3.028734   0.076026 H        1 UNL1     0.0602
     73 H         -2.618021   1.395773   3.246238 H        1 UNL1     0.0628
     74 H         -0.788148   3.666703   4.223514 H        1 UNL1     0.1022
     75 H         -4.244743   7.213524   -6.421481 H        1 UNL1     0.0279
     76 H         -5.082564   5.714764   -6.49273 H        1 UNL1     0.0279
     77 H         -5.925637   7.263476   -6.08528 H        1 UNL1     0.0279
     78 H         -6.719452   4.907343   -4.569035 H        1 UNL1     0.1553
     79 H         -5.191715   3.648328   -4.484606 H        1 UNL1     0.1484
     80 H         -4.17915   0.532367   -2.559771 H        1 UNL1     0.0317
     81 H         -5.724484   1.335829   -2.322454 H        1 UNL1     0.0317
     82 H         -5.945401   1.76488   -4.784326 H        1 UNL1     0.0428
     83 H         -5.753918   0.066775   -4.408193 H        1 UNL1     0.0428
     84 H         -2.278779   2.123778   -5.748077 H        1 UNL1     0.0428
     85 H         -3.736232   3.050194   -5.666189 H        1 UNL1     0.0428
     86 H         -2.132438   3.29553   -3.770799 H        1 UNL1     0.0317
     87 H         -2.224455   1.64742   -3.349351 H        1 UNL1     0.0317
     88 H         -5.139559   0.910988   -6.963282 H        1 UNL1     0.0429
     89 H         -3.413449   0.634116   -7.208475 H        1 UNL1     0.0429
     90 H         -5.605931   -1.254498   -6.390554 H        1 UNL1     0.0308
     91 H         -2.944195   -1.5117   -7.889108 H        1 UNL1     0.0233
     92 H         -3.964231   -2.914399   -7.47989 H        1 UNL1     0.0233
     93 H         -4.562998   -1.673234   -8.559516 H        1 UNL1     0.0233
     94 H         -3.795184   -2.711623   -5.221383 H        1 UNL1     0.0233
     95 H         -3.000515   -1.159223   -4.916616 H        1 UNL1     0.0233
     96 H         -4.643207   -1.452389   -4.300491 H        1 UNL1     0.0233
     97 H         -7.369083   5.217149   4.248641 H        1 UNL1     0.0280
     98 H         -6.784409   6.849838   4.076392 H        1 UNL1     0.0280
     99 H         -8.383038   6.404915   3.40844 H        1 UNL1     0.0280
     100 H         -8.577104   7.121028   0.199101 H        1 UNL1     0.2922
     101 H         1.112504   5.333167   -0.055404 H        1 UNL1     0.0236
     102 H         1.057955   5.84199   -1.788663 H        1 UNL1     0.0236
     103 H         2.033954   4.502657   -1.269905 H        1 UNL1     0.0236
     104 H         2.277252   1.649038   -1.601251 H        1 UNL1     0.2098
     105 H         1.453281   -0.600899   -0.733269 H        1 UNL1     0.0234
     106 H         1.118274   -0.759714   1.014199 H        1 UNL1     0.0234
     107 H         -0.0   0.0   0.0 H        1 UNL1     0.0234
     108 H         1.193329   3.269446   1.877497 H        1 UNL1     0.2098
     109 H         -2.470465   -0.417202   2.137005 H        1 UNL1     0.0234
     110 H         -1.193866   0.581354   1.371509 H        1 UNL1     0.0234
     111 H         -1.143785   -1.142717   1.253544 H        1 UNL1     0.0234
     112 H         3.252164   -3.831848   3.150653 H        1 UNL1     0.0342
     113 H         4.391531   -3.122103   1.952177 H        1 UNL1     0.0342
     114 H         3.803226   -2.154527   3.307044 H        1 UNL1     0.0342
     115 H         3.67665   0.884266   4.614204 H        1 UNL1     0.0234
     116 H         2.067482   1.483814   5.028823 H        1 UNL1     0.0234
     117 H         2.561229   -0.199918   5.302517 H        1 UNL1     0.0234
     118 H         -4.139654   1.866636   4.146499 H        1 UNL1     0.0309
     119 H         -5.668532   2.508083   3.4689 H        1 UNL1     0.0309
     120 H         -4.496566   1.678062   2.469041 H        1 UNL1     0.0309
     121 H         1.383051   0.967779   6.507925 H        1 UNL1     0.0524
     122 H         -0.094632   1.831667   6.951779 H        1 UNL1     0.0524
     123 H         -0.179086   0.105281   6.520271 H        1 UNL1     0.0524
@<TRIPOS>BOND
     1     1     2    1
     2     1    42    1
     3     2     3    2
     4     3     4    1
     5     4     5    2
     6     5     7    1
     7     6    75    1
     8     6    76    1
     9     6    77    1
    10     7     9   am
    11     9    10    1
    12    10    11    2
    13    10    43    1
    14    11    14    1
    15    11    15    1
    16    12    13   ar
    17    12    27   ar
    18    12    43    1
    19    13    14    1
    20    13    30   ar
    21    14    17    2
    22    15    16    1
    23    16    17    1
    24    16    18    1
    25    16    22    1
    26    18    19    1
    27    19    20    1
    28    20    21    1
    29    21    22    1
    30    23    24    1
    31    23    88    1
    32    23    89    1
    33    24    25    1
    34    24    26    1
    35    24    90    1
    36    25    91    1
    37    25    92    1
    38    25    93    1
    39    26    94    1
    40    26    95    1
    41    26    96    1
    42    27    28   ar
    43    28    29   ar
    44    29    30   ar
    45    29    31    1
    46    30    33    1
    47    31    32    1
    48    32    33    1
    49    32    35    1
    50    34    97    1
    51    34    98    1
    52    34    99    1
    53    35    61    1
    54    36    37    1
    55    36    60    1
    56    37    38    1
    57    38    39    1
    58    39    40    1
    59    40    41    1
    60    41    42    1
    61    45   100    1
    62    47   101    1
    63    47   102    1
    64    47   103    1
    65    48   104    1
    66    49   105    1
    67    49   106    1
    68    49   107    1
    69    50   108    1
    70    51    59    1
    71    52   109    1
    72    52   110    1
    73    52   111    1
    74    53    54    1
    75    54    55    2
    76    54    56    1
    77    56   112    1
    78    56   113    1
    79    56   114    1
    80    57   115    1
    81    57   116    1
    82    57   117    1
    83    58   118    1
    84    58   119    1
    85    58   120    1
    86    59   121    1
    87    59   122    1
    88    59   123    1
    89    60    61    2
    90     1    47    1
    91     1    62    1
    92     2    63    1
    93     3    64    1
    94     4    65    1
    95     5     6    1
    96     7     8    2
    97     9    78    1
    98    15    79    1
    99    18    80    1
   100    18    81    1
   101    19    82    1
   102    19    83    1
   103    20    23    1
   104    21    84    1
   105    21    85    1
   106    22    86    1
   107    22    87    1
   108    27    45    1
   109    28    34    1
   110    32    58    1
   111    33    46    2
   112    36    51    1
   113    36    66    1
   114    37    52    1
   115    37    67    1
   116    38    53    1
   117    38    68    1
   118    42    48    1
   119    42    72    1
   120    43    44    2
   121    60    73    1
   122    61    74    1
   123    39    69    1
   124    39    57    1
   125    40    70    1
   126    40    50    1
   127    41    71    1
   128    41    49    1
