@<TRIPOS>MOLECULE
*****
 123 128 0 0 0
SMALL
GASTEIGER

@<TRIPOS>ATOM
     1 C         1.901651   4.243597   1.472528 C.3        1 UNL1     0.0009
     2 C         3.527817   5.133296   1.505084 C.2        1 UNL1     -0.0787
     3 C         4.823633   5.360048   2.109641 C.2        1 UNL1     -0.0649
     4 C         6.076923   6.348179   1.544648 C.2        1 UNL1     -0.0542
     5 C         7.466447   6.615297   1.615006 C.2        1 UNL1     0.0115
     6 C         8.77254   6.282308   2.38738 C.3        1 UNL1     -0.0348
     7 C         8.149983   7.486049   0.452441 C.2        1 UNL1     0.2441
     8 O         8.438822   8.667034   0.587983 O.2        1 UNL1     -0.2702
     9 N         8.632317   6.739309   -0.636543 N.am        1 UNL1     -0.2772
     10 C         7.641442   6.56387   -1.575005 C.2        1 UNL1     0.1049
     11 C         6.79818   5.572065   -1.352623 C.2        1 UNL1     0.0801
     12 C         5.901698   7.802055   -2.877895 C.ar        1 UNL1     0.0753
     13 C         4.973485   6.806992   -2.434188 C.ar        1 UNL1     0.0305
     14 C         5.420817   5.587542   -1.764942 C.2        1 UNL1     0.0924
     15 N         6.864633   4.564108   -0.46598 N.pl3        1 UNL1     -0.3170
     16 C         5.782326   3.65889   -0.747839 C.3        1 UNL1     0.1275
     17 N         4.719837   4.52518   -1.379014 N.2        1 UNL1     -0.2557
     18 C         6.260204   2.709662   -1.842508 C.3        1 UNL1     0.0016
     19 C         7.539056   2.03302   -1.375299 C.3        1 UNL1     0.0026
     20 N         7.262563   1.311992   -0.140512 N.3        1 UNL1     -0.3018
     21 C         6.738997   2.131681   0.954183 C.3        1 UNL1     0.0026
     22 C         5.452201   2.798231   0.464528 C.3        1 UNL1     0.0016
     23 C         8.323446   0.395399   0.226952 C.3        1 UNL1     0.0012
     24 C         7.766602   -1.024159   0.418094 C.3        1 UNL1     -0.0339
     25 C         8.420191   -1.727659   1.618912 C.3        1 UNL1     -0.0615
     26 C         6.254558   -0.976639   0.553167 C.3        1 UNL1     -0.0615
     27 C         5.480076   8.902209   -3.620872 C.ar        1 UNL1     0.1347
     28 C         4.167401   9.093805   -4.013588 C.ar        1 UNL1     0.0342
     29 C         3.263469   8.12723   -3.523892 C.ar        1 UNL1     0.1435
     30 C         3.665832   7.039298   -2.748181 C.ar        1 UNL1     0.0774
     31 O         1.96878   8.113859   -3.909391 O.3        1 UNL1     -0.4436
     32 C         1.516061   6.784015   -3.613699 C.3        1 UNL1     0.3143
     33 C         2.453125   6.276953   -2.536196 C.2        1 UNL1     0.2504
     34 C         3.685511   10.10624   -5.015016 C.3        1 UNL1     -0.0327
     35 O         0.218043   6.898592   -3.01765 O.2        1 UNL1     -0.4528
     36 C         -1.64443   3.728977   -3.962546 C.3        1 UNL1     0.0854
     37 C         -1.252461   2.225207   -3.693178 C.3        1 UNL1     0.0236
     38 C         -2.364706   1.364476   -2.922596 C.3        1 UNL1     0.1131
     39 C         -2.997181   1.918498   -1.582707 C.3        1 UNL1     0.0200
     40 C         -2.029814   2.619053   -0.418292 C.3        1 UNL1     0.0661
     41 C         -0.603035   1.957689   0.217718 C.3        1 UNL1     0.0091
     42 C         0.919061   2.778225   0.830376 C.3        1 UNL1     0.0661
     43 C         7.341513   7.577479   -2.597254 C.2        1 UNL1     0.2131
     44 O         8.240274   8.104036   -3.227892 O.2        1 UNL1     -0.2851
     45 O         6.440116   9.848155   -3.974351 O.3        1 UNL1     -0.5056
     46 O         2.239344   5.446761   -1.681249 O.2        1 UNL1     -0.2836
     47 C         0.970772   4.780339   2.592953 C.3        1 UNL1     -0.0566
     48 O         0.987056   1.976002   2.07574 O.3        1 UNL1     -0.3909
     49 C         -0.161672   0.810578   -0.663661 C.3        1 UNL1     -0.0577
     50 O         -1.849652   3.99652   -0.678774 O.3        1 UNL1     -0.3910
     51 O         -2.832274   4.175482   -3.348469 O.3        1 UNL1     -0.3753
     52 C         0.274541   2.06611   -3.396696 C.3        1 UNL1     -0.0564
     53 O         -2.130081   -0.116392   -2.988218 O.3        1 UNL1     -0.4608
     54 C         -3.079575   -1.081941   -2.778197 C.2        1 UNL1     0.3042
     55 O         -3.338481   -2.044299   -3.499774 O.2        1 UNL1     -0.2512
     56 C         -3.817602   -0.927122   -1.478944 C.3        1 UNL1     0.0332
     57 C         -4.361058   2.661676   -1.964418 C.3        1 UNL1     -0.0567
     58 C         1.73582   5.951401   -4.898217 C.3        1 UNL1     0.0210
     59 C         -3.486398   5.251198   -4.019902 C.3        1 UNL1     0.0372
     60 C         -0.588633   4.723501   -3.628813 C.2        1 UNL1     -0.0208
     61 C         -0.670467   5.887023   -2.982079 C.2        1 UNL1     0.0882
     62 H         1.6413   4.792666   0.559592 H        1 UNL1     0.0365
     63 H         3.388312   5.842462   0.686492 H        1 UNL1     0.0576
     64 H         5.179661   4.753006   2.945016 H        1 UNL1     0.0615
     65 H         5.598962   6.961304   0.775809 H        1 UNL1     0.0622
     66 H         -1.780475   3.787927   -5.051611 H        1 UNL1     0.0645
     67 H         -1.269708   1.760224   -4.694204 H        1 UNL1     0.0362
     68 H         -3.175438   1.403832   -3.666025 H        1 UNL1     0.0741
     69 H         -3.454611   1.096773   -1.047979 H        1 UNL1     0.0359
     70 H         -2.720087   2.589032   0.446394 H        1 UNL1     0.0600
     71 H         -1.014321   1.414538   1.091096 H        1 UNL1     0.0348
     72 H         0.133839   3.548033   0.842147 H        1 UNL1     0.0602
     73 H         0.317418   4.444745   -4.106949 H        1 UNL1     0.0628
     74 H         -1.542737   6.21897   -2.417993 H        1 UNL1     0.1022
     75 H         9.585718   5.996322   1.67746 H        1 UNL1     0.0279
     76 H         9.226179   7.097042   2.947281 H        1 UNL1     0.0279
     77 H         8.685785   5.370524   2.996334 H        1 UNL1     0.0279
     78 H         8.919384   5.816188   -0.317927 H        1 UNL1     0.1553
     79 H         7.712873   4.273803   -0.015264 H        1 UNL1     0.1484
     80 H         5.471454   1.976214   -2.049133 H        1 UNL1     0.0317
     81 H         6.438805   3.24993   -2.778384 H        1 UNL1     0.0317
     82 H         8.355466   2.756999   -1.236588 H        1 UNL1     0.0428
     83 H         7.863372   1.362117   -2.171389 H        1 UNL1     0.0428
     84 H         6.464892   1.553985   1.84241 H        1 UNL1     0.0428
     85 H         7.486477   2.848098   1.322064 H        1 UNL1     0.0428
     86 H         5.029055   3.279264   1.326817 H        1 UNL1     0.0317
     87 H         4.707932   2.03396   0.209476 H        1 UNL1     0.0317
     88 H         9.056465   0.376197   -0.590122 H        1 UNL1     0.0429
     89 H         8.85254   0.737557   1.125707 H        1 UNL1     0.0429
     90 H         7.968338   -1.61363   -0.484148 H        1 UNL1     0.0308
     91 H         9.283833   -1.165893   1.987212 H        1 UNL1     0.0233
     92 H         7.700854   -1.853066   2.431585 H        1 UNL1     0.0233
     93 H         8.778098   -2.733869   1.369354 H        1 UNL1     0.0233
     94 H         5.960075   -1.203654   1.583497 H        1 UNL1     0.0233
     95 H         5.889111   0.02526   0.311072 H        1 UNL1     0.0233
     96 H         5.771678   -1.69863   -0.111306 H        1 UNL1     0.0233
     97 H         2.616719   10.02868   -5.190799 H        1 UNL1     0.0280
     98 H         3.860816   11.136577   -4.678964 H        1 UNL1     0.0280
     99 H         4.2056   9.95254   -5.974692 H        1 UNL1     0.0280
     100 H         6.401733   10.64834   -3.480537 H        1 UNL1     0.2922
     101 H         0.873793   5.862125   2.503569 H        1 UNL1     0.0236
     102 H         1.284443   4.478979   3.591841 H        1 UNL1     0.0236
     103 H         -0.058924   4.397959   2.494437 H        1 UNL1     0.0236
     104 H         0.622558   2.522743   2.799055 H        1 UNL1     0.2098
     105 H         -0.900529   0.497745   -1.39717 H        1 UNL1     0.0234
     106 H         0.808516   0.949778   -1.140406 H        1 UNL1     0.0234
     107 H         0.0   0.0   0.0 H        1 UNL1     0.0234
     108 H         -1.699949   4.436987   0.179915 H        1 UNL1     0.2098
     109 H         0.678781   2.915775   -2.828919 H        1 UNL1     0.0234
     110 H         0.517561   1.131344   -2.880074 H        1 UNL1     0.0234
     111 H         0.863835   2.019746   -4.322184 H        1 UNL1     0.0234
     112 H         -4.484139   -1.781244   -1.325486 H        1 UNL1     0.0342
     113 H         -3.140173   -0.80366   -0.635326 H        1 UNL1     0.0342
     114 H         -4.438269   -0.02275   -1.542573 H        1 UNL1     0.0342
     115 H         -4.918073   2.977053   -1.071412 H        1 UNL1     0.0234
     116 H         -4.225174   3.542697   -2.594804 H        1 UNL1     0.0234
     117 H         -5.098796   2.003006   -2.45415 H        1 UNL1     0.0234
     118 H         0.788237   5.745976   -5.42632 H        1 UNL1     0.0309
     119 H         2.441103   6.414967   -5.595272 H        1 UNL1     0.0309
     120 H         2.130039   4.951057   -4.688429 H        1 UNL1     0.0309
     121 H         -3.982714   4.838687   -4.897889 H        1 UNL1     0.0524
     122 H         -4.259915   5.726469   -3.393941 H        1 UNL1     0.0524
     123 H         -2.762222   6.004128   -4.317826 H        1 UNL1     0.0524
@<TRIPOS>BOND
     1     1     2    1
     2     1    42    1
     3     2     3    2
     4     3     4    1
     5     4     5    2
     6     5     7    1
     7     6    75    1
     8     6    76    1
     9     6    77    1
    10     7     9   am
    11     9    10    1
    12    10    11    2
    13    10    43    1
    14    11    14    1
    15    11    15    1
    16    12    13   ar
    17    12    27   ar
    18    12    43    1
    19    13    14    1
    20    13    30   ar
    21    14    17    2
    22    15    16    1
    23    16    17    1
    24    16    18    1
    25    16    22    1
    26    18    19    1
    27    19    20    1
    28    20    21    1
    29    21    22    1
    30    23    24    1
    31    23    88    1
    32    23    89    1
    33    24    25    1
    34    24    26    1
    35    24    90    1
    36    25    91    1
    37    25    92    1
    38    25    93    1
    39    26    94    1
    40    26    95    1
    41    26    96    1
    42    27    28   ar
    43    28    29   ar
    44    29    30   ar
    45    29    31    1
    46    30    33    1
    47    31    32    1
    48    32    33    1
    49    32    35    1
    50    34    97    1
    51    34    98    1
    52    34    99    1
    53    35    61    1
    54    36    37    1
    55    36    60    1
    56    37    38    1
    57    38    39    1
    58    39    40    1
    59    40    41    1
    60    41    42    1
    61    45   100    1
    62    47   101    1
    63    47   102    1
    64    47   103    1
    65    48   104    1
    66    49   105    1
    67    49   106    1
    68    49   107    1
    69    50   108    1
    70    51    59    1
    71    52   109    1
    72    52   110    1
    73    52   111    1
    74    53    54    1
    75    54    55    2
    76    54    56    1
    77    56   112    1
    78    56   113    1
    79    56   114    1
    80    57   115    1
    81    57   116    1
    82    57   117    1
    83    58   118    1
    84    58   119    1
    85    58   120    1
    86    59   121    1
    87    59   122    1
    88    59   123    1
    89    60    61    2
    90     1    47    1
    91     1    62    1
    92     2    63    1
    93     3    64    1
    94     4    65    1
    95     5     6    1
    96     7     8    2
    97     9    78    1
    98    15    79    1
    99    18    80    1
   100    18    81    1
   101    19    82    1
   102    19    83    1
   103    20    23    1
   104    21    84    1
   105    21    85    1
   106    22    86    1
   107    22    87    1
   108    27    45    1
   109    28    34    1
   110    32    58    1
   111    33    46    2
   112    36    51    1
   113    36    66    1
   114    37    52    1
   115    37    67    1
   116    38    53    1
   117    38    68    1
   118    42    48    1
   119    42    72    1
   120    43    44    2
   121    60    73    1
   122    61    74    1
   123    39    69    1
   124    39    57    1
   125    40    70    1
   126    40    50    1
   127    41    71    1
   128    41    49    1
