@<TRIPOS>MOLECULE
*****
 123 128 0 0 0
SMALL
GASTEIGER

@<TRIPOS>ATOM
     1 C         0.77563   -3.724214   3.892532 C.3        1 UNL1     0.0009
     2 C         -0.082455   -4.851145   5.088673 C.2        1 UNL1     -0.0787
     3 C         -0.457818   -5.192425   6.444651 C.2        1 UNL1     -0.0649
     4 C         -1.475293   -6.444043   6.959002 C.2        1 UNL1     -0.0542
     5 C         -2.286461   -6.919663   8.018658 C.2        1 UNL1     0.0115
     6 C         -2.671504   -6.6916   9.506291 C.3        1 UNL1     -0.0348
     7 C         -3.380397   -8.05351   7.710955 C.2        1 UNL1     0.2441
     8 O         -3.21495   -9.232068   7.994071 O.2        1 UNL1     -0.2702
     9 N         -4.644015   -7.566049   7.334387 N.am        1 UNL1     -0.2772
     10 C         -4.698491   -7.374175   5.97294 C.2        1 UNL1     0.1049
     11 C         -4.198783   -6.236693   5.525004 C.2        1 UNL1     0.0801
     12 C         -4.207188   -8.493946   3.790723 C.ar        1 UNL1     0.0753
     13 C         -3.493409   -7.306449   3.431584 C.ar        1 UNL1     0.0305
     14 C         -3.578462   -6.089737   4.236213 C.2        1 UNL1     0.0924
     15 N         -3.829365   -5.131973   6.195565 N.pl3        1 UNL1     -0.3170
     16 C         -3.513456   -4.115418   5.227541 C.3        1 UNL1     0.1275
     17 N         -3.071363   -4.882116   4.005064 N.2        1 UNL1     -0.2557
     18 C         -4.822717   -3.430581   4.847362 C.3        1 UNL1     0.0016
     19 C         -5.48385   -2.908466   6.113019 C.3        1 UNL1     0.0026
     20 N         -4.574854   -1.975955   6.765075 N.3        1 UNL1     -0.3018
     21 C         -3.263797   -2.527022   7.114108 C.3        1 UNL1     0.0026
     22 C         -2.615698   -3.041355   5.827514 C.3        1 UNL1     0.0016
     23 C         -5.215825   -1.199305   7.807482 C.3        1 UNL1     0.0012
     24 C         -6.119099   -0.117385   7.194863 C.3        1 UNL1     -0.0339
     25 C         -7.485046   -0.060597   7.898441 C.3        1 UNL1     -0.0615
     26 C         -5.416247   1.228573   7.229169 C.3        1 UNL1     -0.0615
     27 C         -4.218202   -9.609483   2.956712 C.ar        1 UNL1     0.1347
     28 C         -3.58796   -9.641883   1.725536 C.ar        1 UNL1     0.0342
     29 C         -2.85106   -8.47925   1.415011 C.ar        1 UNL1     0.1435
     30 C         -2.801157   -7.36762   2.257038 C.ar        1 UNL1     0.0774
     31 O         -2.272627   -8.313574   0.205476 O.3        1 UNL1     -0.4436
     32 C         -2.053397   -6.898836   0.099052 C.3        1 UNL1     0.3143
     33 C         -2.013757   -6.39552   1.527799 C.2        1 UNL1     0.2504
     34 C         -3.763459   -10.700663   0.672784 C.3        1 UNL1     -0.0327
     35 O         -0.741601   -6.710872   -0.446029 O.2        1 UNL1     -0.4528
     36 C         -0.881755   -3.458019   -2.397282 C.3        1 UNL1     0.0854
     37 C         -1.279063   -2.0147   -1.900795 C.3        1 UNL1     0.0236
     38 C         -0.179741   -0.879549   -2.174049 C.3        1 UNL1     0.1131
     39 C         1.320653   -1.117204   -1.732906 C.3        1 UNL1     0.0200
     40 C         1.667993   -1.783711   -0.243758 C.3        1 UNL1     0.0661
     41 C         1.033148   -1.275312   1.244903 C.3        1 UNL1     0.0091
     42 C         0.644276   -2.23128   2.761579 C.3        1 UNL1     0.0661
     43 C         -5.00916   -8.46675   5.039066 C.2        1 UNL1     0.2131
     44 O         -5.940331   -9.220404   5.257385 O.2        1 UNL1     -0.2851
     45 O         -4.899235   -10.740767   3.401493 O.3        1 UNL1     -0.5056
     46 O         -1.442355   -5.423425   1.968688 O.2        1 UNL1     -0.2836
     47 C         2.312671   -3.929334   3.966107 C.3        1 UNL1     -0.0566
     48 O         1.314839   -1.273921   3.674227 O.3        1 UNL1     -0.3909
     49 C         -0.14267   -0.359692   0.986857 C.3        1 UNL1     -0.0577
     50 O         1.664969   -3.195393   -0.313516 O.3        1 UNL1     -0.3910
     51 O         0.442967   -3.609004   -2.855265 O.3        1 UNL1     -0.3753
     52 C         -2.113037   -2.06316   -0.57902 C.3        1 UNL1     -0.0564
     53 O         -0.707738   0.516963   -2.021406 O.3        1 UNL1     -0.4608
     54 C         -1.939913   0.851149   -1.523415 C.2        1 UNL1     0.3042
     55 O         -2.260004   1.898796   -0.963223 O.2        1 UNL1     -0.2512
     56 C         -2.990705   -0.194474   -1.766774 C.3        1 UNL1     0.0332
     57 C         2.113966   -1.677648   -3.003628 C.3        1 UNL1     -0.0567
     58 C         -3.302041   -6.314179   -0.601371 C.3        1 UNL1     0.0210
     59 C         1.435347   -3.608322   -1.830059 C.3        1 UNL1     0.0372
     60 C         -1.123316   -4.54963   -1.41484 C.2        1 UNL1     -0.0208
     61 C         -0.350072   -5.574657   -1.054064 C.2        1 UNL1     0.0882
     62 H         0.414904   -4.353793   3.070207 H        1 UNL1     0.0365
     63 H         -0.420445   -5.642412   4.416269 H        1 UNL1     0.0576
     64 H         -0.228759   -4.533412   7.285092 H        1 UNL1     0.0615
     65 H         -1.574602   -7.079259   6.074627 H        1 UNL1     0.0622
     66 H         -1.558724   -3.656026   -3.240225 H        1 UNL1     0.0645
     67 H         -2.086855   -1.707818   -2.587713 H        1 UNL1     0.0362
     68 H         -0.166609   -0.897308   -3.274519 H        1 UNL1     0.0741
     69 H         1.825932   -0.161619   -1.688667 H        1 UNL1     0.0359
     70 H         2.737891   -1.513269   -0.158672 H        1 UNL1     0.0600
     71 H         1.811673   -0.548372   1.548901 H        1 UNL1     0.0348
     72 H         1.342025   -2.852894   2.181875 H        1 UNL1     0.0602
     73 H         -2.127153   -4.496218   -1.073218 H        1 UNL1     0.0628
     74 H         0.704649   -5.672602   -1.313311 H        1 UNL1     0.1022
     75 H         -2.364051   -5.670827   9.838749 H        1 UNL1     0.0279
     76 H         -3.733747   -6.704003   9.739862 H        1 UNL1     0.0279
     77 H         -2.096926   -7.326612   10.196451 H        1 UNL1     0.0279
     78 H         -4.808904   -6.664696   7.777616 H        1 UNL1     0.1553
     79 H         -4.13217   -4.919234   7.128295 H        1 UNL1     0.1484
     80 H         -4.609579   -2.617993   4.142352 H        1 UNL1     0.0317
     81 H         -5.49253   -4.126263   4.330615 H        1 UNL1     0.0317
     82 H         -5.766032   -3.726449   6.792129 H        1 UNL1     0.0428
     83 H         -6.416354   -2.425592   5.819217 H        1 UNL1     0.0428
     84 H         -2.573088   -1.786443   7.529168 H        1 UNL1     0.0428
     85 H         -3.337847   -3.292224   7.899155 H        1 UNL1     0.0428
     86 H         -1.61207   -3.313107   6.097459 H        1 UNL1     0.0317
     87 H         -2.473483   -2.213155   5.122563 H        1 UNL1     0.0317
     88 H         -5.83894   -1.877792   8.404707 H        1 UNL1     0.0429
     89 H         -4.476245   -0.758735   8.488433 H        1 UNL1     0.0429
     90 H         -6.281699   -0.343431   6.134355 H        1 UNL1     0.0308
     91 H         -7.735392   -1.020926   8.359089 H        1 UNL1     0.0233
     92 H         -7.492618   0.717726   8.665098 H        1 UNL1     0.0233
     93 H         -8.301008   0.183026   7.20729 H        1 UNL1     0.0233
     94 H         -5.321535   1.578978   8.26265 H        1 UNL1     0.0233
     95 H         -4.409958   1.135365   6.811249 H        1 UNL1     0.0233
     96 H         -5.967269   1.981157   6.658239 H        1 UNL1     0.0233
     97 H         -3.267236   -11.628492   0.941347 H        1 UNL1     0.0280
     98 H         -4.819173   -10.958579   0.517205 H        1 UNL1     0.0280
     99 H         -3.340346   -10.346108   -0.281344 H        1 UNL1     0.0280
     100 H         -5.131963   -10.724439   4.313191 H        1 UNL1     0.2922
     101 H         2.566185   -4.933697   3.627521 H        1 UNL1     0.0236
     102 H         2.727442   -3.712533   4.949949 H        1 UNL1     0.0236
     103 H         2.853501   -3.257478   3.278862 H        1 UNL1     0.0236
     104 H         2.151034   -1.68437   3.969657 H        1 UNL1     0.2098
     105 H         -1.11153   -0.851288   1.024986 H        1 UNL1     0.0234
     106 H         -0.155053   0.547015   1.591551 H        1 UNL1     0.0234
     107 H         0.0   0.0   0.0 H        1 UNL1     0.0234
     108 H         2.273713   -3.521279   0.377134 H        1 UNL1     0.2098
     109 H         -2.518861   -1.078799   -0.306895 H        1 UNL1     0.0234
     110 H         -2.924304   -2.798489   -0.6087 H        1 UNL1     0.0234
     111 H         -1.499339   -2.378197   0.275422 H        1 UNL1     0.0234
     112 H         -3.93992   0.121608   -1.323573 H        1 UNL1     0.0342
     113 H         -3.109121   -0.417307   -2.826098 H        1 UNL1     0.0342
     114 H         -2.676409   -1.120022   -1.265034 H        1 UNL1     0.0342
     115 H         3.182826   -1.426832   -2.961004 H        1 UNL1     0.0234
     116 H         2.035338   -2.758706   -3.1347 H        1 UNL1     0.0234
     117 H         1.820037   -1.19725   -3.952714 H        1 UNL1     0.0234
     118 H         -3.121289   -5.29649   -0.989498 H        1 UNL1     0.0309
     119 H         -3.674501   -6.94637   -1.413659 H        1 UNL1     0.0309
     120 H         -4.143805   -6.176496   0.086076 H        1 UNL1     0.0309
     121 H         0.921051   -3.520371   -0.873439 H        1 UNL1     0.0524
     122 H         2.016429   -4.54532   -1.809646 H        1 UNL1     0.0524
     123 H         2.116958   -2.77366   -1.967311 H        1 UNL1     0.0524
@<TRIPOS>BOND
     1     1     2    1
     2     1    42    1
     3     2     3    2
     4     3     4    1
     5     4     5    2
     6     5     7    1
     7     6    75    1
     8     6    76    1
     9     6    77    1
    10     7     9   am
    11     9    10    1
    12    10    11    2
    13    10    43    1
    14    11    14    1
    15    11    15    1
    16    12    13   ar
    17    12    27   ar
    18    12    43    1
    19    13    14    1
    20    13    30   ar
    21    14    17    2
    22    15    16    1
    23    16    17    1
    24    16    18    1
    25    16    22    1
    26    18    19    1
    27    19    20    1
    28    20    21    1
    29    21    22    1
    30    23    24    1
    31    23    88    1
    32    23    89    1
    33    24    25    1
    34    24    26    1
    35    24    90    1
    36    25    91    1
    37    25    92    1
    38    25    93    1
    39    26    94    1
    40    26    95    1
    41    26    96    1
    42    27    28   ar
    43    28    29   ar
    44    29    30   ar
    45    29    31    1
    46    30    33    1
    47    31    32    1
    48    32    33    1
    49    32    35    1
    50    34    97    1
    51    34    98    1
    52    34    99    1
    53    35    61    1
    54    36    37    1
    55    36    60    1
    56    37    38    1
    57    38    39    1
    58    39    40    1
    59    40    41    1
    60    41    42    1
    61    45   100    1
    62    47   101    1
    63    47   102    1
    64    47   103    1
    65    48   104    1
    66    49   105    1
    67    49   106    1
    68    49   107    1
    69    50   108    1
    70    51    59    1
    71    52   109    1
    72    52   110    1
    73    52   111    1
    74    53    54    1
    75    54    55    2
    76    54    56    1
    77    56   112    1
    78    56   113    1
    79    56   114    1
    80    57   115    1
    81    57   116    1
    82    57   117    1
    83    58   118    1
    84    58   119    1
    85    58   120    1
    86    59   121    1
    87    59   122    1
    88    59   123    1
    89    60    61    2
    90     1    47    1
    91     1    62    1
    92     2    63    1
    93     3    64    1
    94     4    65    1
    95     5     6    1
    96     7     8    2
    97     9    78    1
    98    15    79    1
    99    18    80    1
   100    18    81    1
   101    19    82    1
   102    19    83    1
   103    20    23    1
   104    21    84    1
   105    21    85    1
   106    22    86    1
   107    22    87    1
   108    27    45    1
   109    28    34    1
   110    32    58    1
   111    33    46    2
   112    36    51    1
   113    36    66    1
   114    37    52    1
   115    37    67    1
   116    38    53    1
   117    38    68    1
   118    42    48    1
   119    42    72    1
   120    43    44    2
   121    60    73    1
   122    61    74    1
   123    39    69    1
   124    39    57    1
   125    40    70    1
   126    40    50    1
   127    41    71    1
   128    41    49    1
