@<TRIPOS>MOLECULE
*****
 123 128 0 0 0
SMALL
GASTEIGER

@<TRIPOS>ATOM
     1 C         5.168805   1.743118   0.493586 C.3        1 UNL1     0.0009
     2 C         6.607127   2.546797   -0.356335 C.2        1 UNL1     -0.0787
     3 C         7.889247   2.446485   -1.02128 C.2        1 UNL1     -0.0649
     4 C         8.768887   3.680017   -1.776919 C.2        1 UNL1     -0.0542
     5 C         9.789868   3.970786   -2.715071 C.2        1 UNL1     0.0115
     6 C         10.917672   3.343345   -3.579766 C.3        1 UNL1     -0.0348
     7 C         9.887667   5.453631   -3.322191 C.2        1 UNL1     0.2441
     8 O         10.712502   6.274275   -2.944414 O.2        1 UNL1     -0.2702
     9 N         9.138414   5.661136   -4.493393 N.am        1 UNL1     -0.2772
     10 C         7.856071   6.049784   -4.180551 C.2        1 UNL1     0.1049
     11 C         7.008735   5.079708   -3.888665 C.2        1 UNL1     0.0801
     12 C         6.559156   7.65892   -2.771286 C.ar        1 UNL1     0.0753
     13 C         5.798236   6.532289   -2.323724 C.ar        1 UNL1     0.0305
     14 C         5.91368   5.226131   -2.968453 C.2        1 UNL1     0.0924
     15 N         7.129554   3.750485   -4.047083 N.pl3        1 UNL1     -0.3170
     16 C         5.858663   3.153266   -3.733367 C.3        1 UNL1     0.1275
     17 N         5.22306   4.109849   -2.754244 N.2        1 UNL1     -0.2557
     18 C         5.006626   3.212978   -4.997554 C.3        1 UNL1     0.0016
     19 C         5.761181   2.527301   -6.125421 C.3        1 UNL1     0.0026
     20 N         6.029138   1.148991   -5.738783 N.3        1 UNL1     -0.3018
     21 C         6.791554   0.988072   -4.498946 C.3        1 UNL1     0.0026
     22 C         6.013148   1.680207   -3.37871 C.3        1 UNL1     0.0016
     23 C         6.473115   0.328318   -6.847848 C.3        1 UNL1     0.0012
     24 C         5.317881   0.080042   -7.830471 C.3        1 UNL1     -0.0339
     25 C         5.345533   1.082655   -8.99583 C.3        1 UNL1     -0.0615
     26 C         5.355518   -1.354944   -8.326634 C.3        1 UNL1     -0.0615
     27 C         6.355991   8.927149   -2.232363 C.ar        1 UNL1     0.1347
     28 C         5.396767   9.198498   -1.273036 C.ar        1 UNL1     0.0342
     29 C         4.693327   8.065258   -0.812491 C.ar        1 UNL1     0.1435
     30 C         4.911234   6.78269   -1.317225 C.ar        1 UNL1     0.0774
     31 O         3.652009   8.180695   0.04035 O.3        1 UNL1     -0.4436
     32 C         2.928658   6.948839   -0.101662 C.3        1 UNL1     0.3143
     33 C         3.940844   5.954049   -0.632779 C.2        1 UNL1     0.2504
     34 C         4.951622   10.565438   -0.833238 C.3        1 UNL1     -0.0327
     35 O         2.566649   6.513255   1.21457 O.2        1 UNL1     -0.4528
     36 C         -0.678919   4.585507   0.816872 C.3        1 UNL1     0.0854
     37 C         -0.985509   3.324947   -0.080075 C.3        1 UNL1     0.0236
     38 C         -1.588307   2.065121   0.708099 C.3        1 UNL1     0.1131
     39 C         -0.864045   1.533753   2.01016 C.3        1 UNL1     0.0200
     40 C         0.796914   1.385861   2.052338 C.3        1 UNL1     0.0661
     41 C         1.75585   0.615127   0.884425 C.3        1 UNL1     0.0091
     42 C         3.464272   0.974992   0.321223 C.3        1 UNL1     0.0661
     43 C         7.509537   7.449348   -3.891606 C.2        1 UNL1     0.2131
     44 O         7.911106   8.346523   -4.610324 O.2        1 UNL1     -0.2851
     45 O         7.169992   9.960886   -2.69087 O.3        1 UNL1     -0.5056
     46 O         3.955044   4.750554   -0.501436 O.2        1 UNL1     -0.2836
     47 C         5.563741   1.313745   1.932212 C.3        1 UNL1     -0.0566
     48 O         3.910777   -0.436713   0.403917 O.3        1 UNL1     -0.3909
     49 C         0.922033   0.383149   -0.355909 C.3        1 UNL1     -0.0577
     50 O         1.398626   2.60305   2.444917 O.3        1 UNL1     -0.3910
     51 O         -0.804063   4.396658   2.208312 O.3        1 UNL1     -0.3753
     52 C         0.059366   3.16245   -1.231934 C.3        1 UNL1     -0.0564
     53 O         -2.191883   1.026578   -0.191595 O.3        1 UNL1     -0.4608
     54 C         -2.416247   -0.282938   0.144203 C.2        1 UNL1     0.3042
     55 O         -1.845113   -1.276936   -0.302575 O.2        1 UNL1     -0.2512
     56 C         -3.446674   -0.459089   1.223047 C.3        1 UNL1     0.0332
     57 C         -1.584829   2.204364   3.270686 C.3        1 UNL1     -0.0567
     58 C         1.854424   7.194955   -1.186548 C.3        1 UNL1     0.0210
     59 C         -1.146923   5.570131   2.944025 C.3        1 UNL1     0.0372
     60 C         0.651103   5.212586   0.58671 C.2        1 UNL1     -0.0208
     61 C         1.56417   5.646925   1.456424 C.2        1 UNL1     0.0882
     62 H         4.69424   2.72801   0.580124 H        1 UNL1     0.0365
     63 H         6.342325   3.601025   -0.251675 H        1 UNL1     0.0576
     64 H         8.345645   1.478879   -1.241616 H        1 UNL1     0.0615
     65 H         8.282917   4.596271   -1.430804 H        1 UNL1     0.0622
     66 H         -1.422329   5.33295   0.50588 H        1 UNL1     0.0645
     67 H         -1.850272   3.635259   -0.691999 H        1 UNL1     0.0362
     68 H         -2.53495   2.503515   1.0591 H        1 UNL1     0.0741
     69 H         -1.19712   0.523222   2.205852 H        1 UNL1     0.0359
     70 H         0.907255   0.725789   2.933921 H        1 UNL1     0.0600
     71 H         1.797736   -0.405897   1.311873 H        1 UNL1     0.0348
     72 H         3.35854   1.463811   1.300606 H        1 UNL1     0.0602
     73 H         0.769858   5.409176   -0.44987 H        1 UNL1     0.0628
     74 H         1.545726   5.436793   2.526351 H        1 UNL1     0.1022
     75 H         10.960489   2.238077   -3.426201 H        1 UNL1     0.0279
     76 H         10.804759   3.425785   -4.658434 H        1 UNL1     0.0279
     77 H         11.922999   3.646769   -3.25273 H        1 UNL1     0.0279
     78 H         9.075463   4.791027   -5.017821 H        1 UNL1     0.1553
     79 H         7.794556   3.321251   -4.6639 H        1 UNL1     0.1484
     80 H         4.044536   2.72351   -4.803722 H        1 UNL1     0.0317
     81 H         4.78165   4.249925   -5.269176 H        1 UNL1     0.0317
     82 H         6.69274   3.057154   -6.373141 H        1 UNL1     0.0428
     83 H         5.136604   2.582912   -7.017531 H        1 UNL1     0.0428
     84 H         6.910212   -0.054904   -4.189214 H        1 UNL1     0.0428
     85 H         7.822229   1.354583   -4.602366 H        1 UNL1     0.0428
     86 H         6.528708   1.42954   -2.470222 H        1 UNL1     0.0317
     87 H         5.032953   1.20403   -3.253938 H        1 UNL1     0.0317
     88 H         7.270245   0.868725   -7.374952 H        1 UNL1     0.0429
     89 H         6.904164   -0.617904   -6.49623 H        1 UNL1     0.0429
     90 H         4.364877   0.188366   -7.299186 H        1 UNL1     0.0308
     91 H         6.295877   1.038312   -9.536183 H        1 UNL1     0.0233
     92 H         4.527208   0.88745   -9.692858 H        1 UNL1     0.0233
     93 H         5.219388   2.118595   -8.65856 H        1 UNL1     0.0233
     94 H         4.659518   -1.483928   -9.162567 H        1 UNL1     0.0233
     95 H         6.359738   -1.600824   -8.68307 H        1 UNL1     0.0233
     96 H         5.079703   -2.058011   -7.53569 H        1 UNL1     0.0233
     97 H         4.157802   10.517147   -0.093814 H        1 UNL1     0.0280
     98 H         5.764926   11.134546   -0.364293 H        1 UNL1     0.0280
     99 H         4.579233   11.130086   -1.703637 H        1 UNL1     0.0280
     100 H         6.704207   10.711745   -3.014719 H        1 UNL1     0.2922
     101 H         4.70003   0.88158   2.437081 H        1 UNL1     0.0236
     102 H         6.01535   2.118724   2.511039 H        1 UNL1     0.0236
     103 H         6.318845   0.509997   1.931918 H        1 UNL1     0.0236
     104 H         4.329647   -0.562879   1.27776 H        1 UNL1     0.2098
     105 H         0.709721   1.282225   -0.928969 H        1 UNL1     0.0234
     106 H         1.291498   -0.404696   -1.012204 H        1 UNL1     0.0234
     107 H         0.0   -0.0   0.0 H        1 UNL1     0.0234
     108 H         1.2014   3.261249   1.750911 H        1 UNL1     0.2098
     109 H         1.083828   3.047697   -0.851116 H        1 UNL1     0.0234
     110 H         -0.173879   2.335353   -1.911089 H        1 UNL1     0.0234
     111 H         0.082179   4.044916   -1.88514 H        1 UNL1     0.0234
     112 H         -3.573656   -1.522751   1.446302 H        1 UNL1     0.0342
     113 H         -3.197839   0.101947   2.122583 H        1 UNL1     0.0342
     114 H         -4.405776   -0.07704   0.847113 H        1 UNL1     0.0342
     115 H         -2.6494   1.937479   3.322141 H        1 UNL1     0.0234
     116 H         -1.134189   1.943642   4.230372 H        1 UNL1     0.0234
     117 H         -1.643695   3.304715   3.209817 H        1 UNL1     0.0234
     118 H         0.953817   7.683344   -0.774979 H        1 UNL1     0.0309
     119 H         2.225099   7.782001   -2.032822 H        1 UNL1     0.0309
     120 H         1.464761   6.263344   -1.611249 H        1 UNL1     0.0309
     121 H         -0.341588   6.291475   2.808178 H        1 UNL1     0.0524
     122 H         -2.076216   6.037127   2.577465 H        1 UNL1     0.0524
     123 H         -1.26353   5.332513   3.997607 H        1 UNL1     0.0524
@<TRIPOS>BOND
     1     1     2    1
     2     1    42    1
     3     2     3    2
     4     3     4    1
     5     4     5    2
     6     5     7    1
     7     6    75    1
     8     6    76    1
     9     6    77    1
    10     7     9   am
    11     9    10    1
    12    10    11    2
    13    10    43    1
    14    11    14    1
    15    11    15    1
    16    12    13   ar
    17    12    27   ar
    18    12    43    1
    19    13    14    1
    20    13    30   ar
    21    14    17    2
    22    15    16    1
    23    16    17    1
    24    16    18    1
    25    16    22    1
    26    18    19    1
    27    19    20    1
    28    20    21    1
    29    21    22    1
    30    23    24    1
    31    23    88    1
    32    23    89    1
    33    24    25    1
    34    24    26    1
    35    24    90    1
    36    25    91    1
    37    25    92    1
    38    25    93    1
    39    26    94    1
    40    26    95    1
    41    26    96    1
    42    27    28   ar
    43    28    29   ar
    44    29    30   ar
    45    29    31    1
    46    30    33    1
    47    31    32    1
    48    32    33    1
    49    32    35    1
    50    34    97    1
    51    34    98    1
    52    34    99    1
    53    35    61    1
    54    36    37    1
    55    36    60    1
    56    37    38    1
    57    38    39    1
    58    39    40    1
    59    40    41    1
    60    41    42    1
    61    45   100    1
    62    47   101    1
    63    47   102    1
    64    47   103    1
    65    48   104    1
    66    49   105    1
    67    49   106    1
    68    49   107    1
    69    50   108    1
    70    51    59    1
    71    52   109    1
    72    52   110    1
    73    52   111    1
    74    53    54    1
    75    54    55    2
    76    54    56    1
    77    56   112    1
    78    56   113    1
    79    56   114    1
    80    57   115    1
    81    57   116    1
    82    57   117    1
    83    58   118    1
    84    58   119    1
    85    58   120    1
    86    59   121    1
    87    59   122    1
    88    59   123    1
    89    60    61    2
    90     1    47    1
    91     1    62    1
    92     2    63    1
    93     3    64    1
    94     4    65    1
    95     5     6    1
    96     7     8    2
    97     9    78    1
    98    15    79    1
    99    18    80    1
   100    18    81    1
   101    19    82    1
   102    19    83    1
   103    20    23    1
   104    21    84    1
   105    21    85    1
   106    22    86    1
   107    22    87    1
   108    27    45    1
   109    28    34    1
   110    32    58    1
   111    33    46    2
   112    36    51    1
   113    36    66    1
   114    37    52    1
   115    37    67    1
   116    38    53    1
   117    38    68    1
   118    42    48    1
   119    42    72    1
   120    43    44    2
   121    60    73    1
   122    61    74    1
   123    39    69    1
   124    39    57    1
   125    40    70    1
   126    40    50    1
   127    41    71    1
   128    41    49    1
