@<TRIPOS>MOLECULE
*****
 123 128 0 0 0
SMALL
GASTEIGER

@<TRIPOS>ATOM
     1 C         -2.113369   2.465606   -2.548213 C.3        1 UNL1     0.0009
     2 C         -3.746122   3.289306   -2.243789 C.2        1 UNL1     -0.0787
     3 C         -5.189147   3.299103   -2.360528 C.2        1 UNL1     -0.0649
     4 C         -6.278892   4.414669   -1.701495 C.2        1 UNL1     -0.0542
     5 C         -7.626834   4.639119   -1.327661 C.2        1 UNL1     0.0115
     6 C         -9.067682   4.065152   -1.416227 C.3        1 UNL1     -0.0348
     7 C         -7.963653   5.843529   -0.321212 C.2        1 UNL1     0.2441
     8 O         -8.427972   6.91214   -0.694045 O.2        1 UNL1     -0.2702
     9 N         -7.935767   5.497934   1.041116 N.am        1 UNL1     -0.2772
     10 C         -6.665256   5.646155   1.548219 C.2        1 UNL1     0.1049
     11 C         -5.835582   4.639278   1.343134 C.2        1 UNL1     0.0801
     12 C         -4.750098   7.251249   1.663018 C.ar        1 UNL1     0.0753
     13 C         -3.918702   6.168286   1.233389 C.ar        1 UNL1     0.0305
     14 C         -4.414727   4.794659   1.186917 C.2        1 UNL1     0.0924
     15 N         -6.080902   3.394424   0.899643 N.pl3        1 UNL1     -0.3170
     16 C         -4.863626   2.636928   1.02086 C.3        1 UNL1     0.1275
     17 N         -3.765513   3.666617   0.913108 N.2        1 UNL1     -0.2557
     18 C         -4.804108   2.10216   2.44851 C.3        1 UNL1     0.0016
     19 C         -6.06948   1.305036   2.7224 C.3        1 UNL1     0.0026
     20 N         -6.154608   0.216733   1.758357 N.3        1 UNL1     -0.3018
     21 C         -6.155414   0.6294   0.35334 C.3        1 UNL1     0.0026
     22 C         -4.873534   1.424458   0.099249 C.3        1 UNL1     0.0016
     23 C         -7.152511   -0.773111   2.111969 C.3        1 UNL1     0.0012
     24 C         -6.701023   -1.57792   3.34087 C.3        1 UNL1     -0.0339
     25 C         -7.695864   -1.433425   4.504258 C.3        1 UNL1     -0.0615
     26 C         -6.491761   -3.033712   2.961848 C.3        1 UNL1     -0.0615
     27 C         -4.237079   8.536639   1.820188 C.ar        1 UNL1     0.1347
     28 C         -2.905314   8.851515   1.616952 C.ar        1 UNL1     0.0342
     29 C         -2.116153   7.780134   1.147345 C.ar        1 UNL1     0.1435
     30 C         -2.624304   6.495499   0.950582 C.ar        1 UNL1     0.0774
     31 O         -0.777792   7.899158   1.007237 O.3        1 UNL1     -0.4436
     32 C         -0.293692   6.547825   0.986807 C.3        1 UNL1     0.3143
     33 C         -1.477   5.709728   0.54682 C.2        1 UNL1     0.2504
     34 C         -2.23477   10.139885   2.004991 C.3        1 UNL1     -0.0327
     35 O         0.68779   6.462634   -0.053716 O.2        1 UNL1     -0.4528
     36 C         3.146653   3.790377   1.051328 C.3        1 UNL1     0.0854
     37 C         2.87791   2.281022   1.421661 C.3        1 UNL1     0.0236
     38 C         3.74868   1.217169   0.595996 C.3        1 UNL1     0.1131
     39 C         3.796522   1.298316   -0.983053 C.3        1 UNL1     0.0200
     40 C         2.402529   1.570862   -1.857661 C.3        1 UNL1     0.0661
     41 C         0.938803   0.731811   -1.681279 C.3        1 UNL1     0.0091
     42 C         -0.791868   1.29852   -1.902687 C.3        1 UNL1     0.0661
     43 C         -6.156448   6.941962   2.021879 C.2        1 UNL1     0.2131
     44 O         -6.83601   7.644817   2.747776 O.2        1 UNL1     -0.2851
     45 O         -5.123436   9.543283   2.197649 O.3        1 UNL1     -0.5056
     46 O         -1.473516   4.643977   -0.027649 O.2        1 UNL1     -0.2836
     47 C         -1.709512   2.604028   -4.040768 C.3        1 UNL1     -0.0566
     48 O         -1.1902   0.129031   -2.722897 O.3        1 UNL1     -0.3909
     49 C         0.982418   -0.06018   -0.393513 C.3        1 UNL1     -0.0577
     50 O         2.153061   2.956321   -1.984125 O.3        1 UNL1     -0.3910
     51 O         3.977754   4.012084   -0.065609 O.3        1 UNL1     -0.3753
     52 C         1.376843   2.028006   1.77905 C.3        1 UNL1     -0.0564
     53 O         3.740439   -0.159184   1.194251 O.3        1 UNL1     -0.4608
     54 C         3.746268   -1.333341   0.487674 C.2        1 UNL1     0.3042
     55 O         4.634944   -1.756257   -0.250727 O.2        1 UNL1     -0.2512
     56 C         2.530196   -2.183199   0.723518 C.3        1 UNL1     0.0332
     57 C         5.102475   2.130181   -1.383878 C.3        1 UNL1     -0.0567
     58 C         0.057212   6.186747   2.449004 C.3        1 UNL1     0.0210
     59 C         5.280937   4.503099   0.245008 C.3        1 UNL1     0.0372
     60 C         1.924562   4.61505   0.847448 C.2        1 UNL1     -0.0208
     61 C         1.627392   5.499094   -0.105916 C.2        1 UNL1     0.0882
     62 H         -1.621074   3.286758   -2.013361 H        1 UNL1     0.0365
     63 H         -3.419204   4.229917   -1.795631 H        1 UNL1     0.0576
     64 H         -5.735768   2.448627   -2.774055 H        1 UNL1     0.0615
     65 H         -5.643178   5.249234   -1.393518 H        1 UNL1     0.0622
     66 H         3.647014   4.206977   1.936839 H        1 UNL1     0.0645
     67 H         3.303164   2.173722   2.434679 H        1 UNL1     0.0362
     68 H         4.756618   1.502944   0.933511 H        1 UNL1     0.0741
     69 H         4.137253   0.347322   -1.37025 H        1 UNL1     0.0359
     70 H         2.744054   1.258406   -2.863043 H        1 UNL1     0.0600
     71 H         1.082984   -0.068578   -2.433308 H        1 UNL1     0.0348
     72 H         -0.164175   2.02345   -2.441011 H        1 UNL1     0.0602
     73 H         1.286247   4.5075   1.689015 H        1 UNL1     0.0628
     74 H         2.197544   5.628276   -1.0265 H        1 UNL1     0.1022
     75 H         -9.303747   3.758359   -2.463693 H        1 UNL1     0.0279
     76 H         -9.262047   3.153522   -0.855672 H        1 UNL1     0.0279
     77 H         -9.840548   4.826139   -1.233806 H        1 UNL1     0.0279
     78 H         -8.197541   4.520501   1.151463 H        1 UNL1     0.1553
     79 H         -6.989499   2.968643   0.909394 H        1 UNL1     0.1484
     80 H         -3.907281   1.48093   2.560496 H        1 UNL1     0.0317
     81 H         -4.710069   2.921241   3.16956 H        1 UNL1     0.0317
     82 H         -6.966994   1.93973   2.683114 H        1 UNL1     0.0428
     83 H         -6.007093   0.934523   3.74606 H        1 UNL1     0.0428
     84 H         -6.139406   -0.208926   -0.350055 H        1 UNL1     0.0428
     85 H         -7.068283   1.181302   0.089918 H        1 UNL1     0.0428
     86 H         -4.843469   1.5942   -0.961068 H        1 UNL1     0.0317
     87 H         -3.997144   0.790038   0.279661 H        1 UNL1     0.0317
     88 H         -8.082708   -0.246194   2.36174 H        1 UNL1     0.0429
     89 H         -7.375233   -1.434972   1.265146 H        1 UNL1     0.0429
     90 H         -5.722049   -1.21064   3.670914 H        1 UNL1     0.0308
     91 H         -8.714881   -1.274813   4.138815 H        1 UNL1     0.0233
     92 H         -7.677282   -2.321072   5.140925 H        1 UNL1     0.0233
     93 H         -7.455894   -0.584592   5.155973 H        1 UNL1     0.0233
     94 H         -5.435889   -3.216965   2.735154 H        1 UNL1     0.0233
     95 H         -6.77475   -3.681453   3.796301 H        1 UNL1     0.0233
     96 H         -7.0859   -3.30725   2.085409 H        1 UNL1     0.0233
     97 H         -1.406479   9.978397   2.688428 H        1 UNL1     0.0280
     98 H         -1.811286   10.663505   1.137961 H        1 UNL1     0.0280
     99 H         -2.965218   10.802282   2.497709 H        1 UNL1     0.0280
     100 H         -5.914892   9.578777   1.689751 H        1 UNL1     0.2922
     101 H         -2.159876   1.798068   -4.619782 H        1 UNL1     0.0236
     102 H         -0.631789   2.661775   -4.189638 H        1 UNL1     0.0236
     103 H         -2.105594   3.528614   -4.492933 H        1 UNL1     0.0236
     104 H         -0.438761   -0.090775   -3.3077 H        1 UNL1     0.2098
     105 H         1.225851   -1.111969   -0.521156 H        1 UNL1     0.0234
     106 H         1.600363   0.378214   0.389993 H        1 UNL1     0.0234
     107 H         0.0   0.0   0.0 H        1 UNL1     0.0234
     108 H         2.92447   3.349972   -2.435496 H        1 UNL1     0.2098
     109 H         1.050421   2.618829   2.646281 H        1 UNL1     0.0234
     110 H         0.698219   2.206151   0.937933 H        1 UNL1     0.0234
     111 H         1.196373   0.978991   2.049134 H        1 UNL1     0.0234
     112 H         2.197627   -2.626938   -0.219796 H        1 UNL1     0.0342
     113 H         2.706534   -2.950728   1.475613 H        1 UNL1     0.0342
     114 H         1.72437   -1.534086   1.092925 H        1 UNL1     0.0342
     115 H         5.537272   1.777333   -2.329202 H        1 UNL1     0.0234
     116 H         4.932101   3.204191   -1.481481 H        1 UNL1     0.0234
     117 H         5.948725   1.981154   -0.691351 H        1 UNL1     0.0234
     118 H         1.146159   6.087115   2.60156 H        1 UNL1     0.0309
     119 H         -0.342354   6.901206   3.175708 H        1 UNL1     0.0309
     120 H         -0.329999   5.205395   2.744167 H        1 UNL1     0.0309
     121 H         5.815839   3.710726   0.767867 H        1 UNL1     0.0524
     122 H         5.860069   4.753847   -0.659298 H        1 UNL1     0.0524
     123 H         5.209893   5.385792   0.874214 H        1 UNL1     0.0524
@<TRIPOS>BOND
     1     1     2    1
     2     1    42    1
     3     2     3    2
     4     3     4    1
     5     4     5    2
     6     5     7    1
     7     6    75    1
     8     6    76    1
     9     6    77    1
    10     7     9   am
    11     9    10    1
    12    10    11    2
    13    10    43    1
    14    11    14    1
    15    11    15    1
    16    12    13   ar
    17    12    27   ar
    18    12    43    1
    19    13    14    1
    20    13    30   ar
    21    14    17    2
    22    15    16    1
    23    16    17    1
    24    16    18    1
    25    16    22    1
    26    18    19    1
    27    19    20    1
    28    20    21    1
    29    21    22    1
    30    23    24    1
    31    23    88    1
    32    23    89    1
    33    24    25    1
    34    24    26    1
    35    24    90    1
    36    25    91    1
    37    25    92    1
    38    25    93    1
    39    26    94    1
    40    26    95    1
    41    26    96    1
    42    27    28   ar
    43    28    29   ar
    44    29    30   ar
    45    29    31    1
    46    30    33    1
    47    31    32    1
    48    32    33    1
    49    32    35    1
    50    34    97    1
    51    34    98    1
    52    34    99    1
    53    35    61    1
    54    36    37    1
    55    36    60    1
    56    37    38    1
    57    38    39    1
    58    39    40    1
    59    40    41    1
    60    41    42    1
    61    45   100    1
    62    47   101    1
    63    47   102    1
    64    47   103    1
    65    48   104    1
    66    49   105    1
    67    49   106    1
    68    49   107    1
    69    50   108    1
    70    51    59    1
    71    52   109    1
    72    52   110    1
    73    52   111    1
    74    53    54    1
    75    54    55    2
    76    54    56    1
    77    56   112    1
    78    56   113    1
    79    56   114    1
    80    57   115    1
    81    57   116    1
    82    57   117    1
    83    58   118    1
    84    58   119    1
    85    58   120    1
    86    59   121    1
    87    59   122    1
    88    59   123    1
    89    60    61    2
    90     1    47    1
    91     1    62    1
    92     2    63    1
    93     3    64    1
    94     4    65    1
    95     5     6    1
    96     7     8    2
    97     9    78    1
    98    15    79    1
    99    18    80    1
   100    18    81    1
   101    19    82    1
   102    19    83    1
   103    20    23    1
   104    21    84    1
   105    21    85    1
   106    22    86    1
   107    22    87    1
   108    27    45    1
   109    28    34    1
   110    32    58    1
   111    33    46    2
   112    36    51    1
   113    36    66    1
   114    37    52    1
   115    37    67    1
   116    38    53    1
   117    38    68    1
   118    42    48    1
   119    42    72    1
   120    43    44    2
   121    60    73    1
   122    61    74    1
   123    39    69    1
   124    39    57    1
   125    40    70    1
   126    40    50    1
   127    41    71    1
   128    41    49    1
