@<TRIPOS>MOLECULE
*****
 123 128 0 0 0
SMALL
GASTEIGER

@<TRIPOS>ATOM
     1 C         0.732091   3.799881   -1.730883 C.3        1 UNL1     0.0009
     2 C         -0.517914   5.070237   -2.24149 C.2        1 UNL1     -0.0787
     3 C         -1.25481   5.761399   -3.278469 C.2        1 UNL1     -0.0649
     4 C         -2.502567   6.890433   -3.092073 C.2        1 UNL1     -0.0542
     5 C         -3.60011   7.523186   -3.726186 C.2        1 UNL1     0.0115
     6 C         -4.314936   7.73021   -5.089817 C.3        1 UNL1     -0.0348
     7 C         -4.703634   8.256626   -2.819935 C.2        1 UNL1     0.2441
     8 O         -4.747681   9.470837   -2.677542 O.2        1 UNL1     -0.2702
     9 N         -5.770613   7.437017   -2.412567 N.am        1 UNL1     -0.2772
     10 C         -5.462686   6.79876   -1.233105 C.2        1 UNL1     0.1049
     11 C         -4.742393   5.696807   -1.338455 C.2        1 UNL1     0.0801
     12 C         -4.573285   7.206041   1.06916 C.ar        1 UNL1     0.0753
     13 C         -3.663518   6.128751   0.823441 C.ar        1 UNL1     0.0305
     14 C         -3.808458   5.254804   -0.338566 C.2        1 UNL1     0.0924
     15 N         -4.429402   4.969975   -2.424861 N.pl3        1 UNL1     -0.3170
     16 C         -3.770148   3.772005   -1.977081 C.3        1 UNL1     0.1275
     17 N         -3.127089   4.161239   -0.668381 N.2        1 UNL1     -0.2557
     18 C         -4.857902   2.760069   -1.62998 C.3        1 UNL1     0.0016
     19 C         -5.74997   2.568578   -2.846176 C.3        1 UNL1     0.0026
     20 N         -4.932708   2.099203   -3.956491 N.3        1 UNL1     -0.3018
     21 C         -3.820409   2.977635   -4.324615 C.3        1 UNL1     0.0026
     22 C         -2.934794   3.152486   -3.089702 C.3        1 UNL1     0.0016
     23 C         -5.721164   1.602664   -5.06664 C.3        1 UNL1     0.0012
     24 C         -6.681591   2.689839   -5.573976 C.3        1 UNL1     -0.0339
     25 C         -7.367276   3.422626   -4.409108 C.3        1 UNL1     -0.0615
     26 C         -5.941654   3.655211   -6.483552 C.3        1 UNL1     -0.0615
     27 C         -4.502052   7.958212   2.239324 C.ar        1 UNL1     0.1347
     28 C         -3.593113   7.702843   3.250594 C.ar        1 UNL1     0.0342
     29 C         -2.675999   6.669082   2.965284 C.ar        1 UNL1     0.1435
     30 C         -2.712255   5.930706   1.781769 C.ar        1 UNL1     0.0774
     31 O         -1.799969   6.2279   3.894228 O.3        1 UNL1     -0.4436
     32 C         -1.403223   4.92855   3.430381 C.3        1 UNL1     0.3143
     33 C         -1.663852   4.944148   1.937719 C.2        1 UNL1     0.2504
     34 C         -3.619297   8.29835   4.630734 C.3        1 UNL1     -0.0327
     35 O         0.015489   4.828723   3.605146 O.2        1 UNL1     -0.4528
     36 C         0.732559   1.151682   4.216099 C.3        1 UNL1     0.0854
     37 C         0.389425   -0.094007   3.311643 C.3        1 UNL1     0.0236
     38 C         1.642814   -1.019842   2.932712 C.3        1 UNL1     0.1131
     39 C         2.949643   -0.363708   2.329425 C.3        1 UNL1     0.0200
     40 C         2.838208   0.811897   1.151302 C.3        1 UNL1     0.0661
     41 C         1.914401   0.711957   -0.267924 C.3        1 UNL1     0.0091
     42 C         1.055284   2.021382   -1.223292 C.3        1 UNL1     0.0661
     43 C         -5.652284   7.438627   0.07723 C.2        1 UNL1     0.2131
     44 O         -6.687272   8.026522   0.333974 O.2        1 UNL1     -0.2851
     45 O         -5.395293   9.018268   2.380179 O.3        1 UNL1     -0.5056
     46 O         -1.114354   4.302937   1.070104 O.2        1 UNL1     -0.2836
     47 C         2.169286   4.31144   -2.018558 C.3        1 UNL1     -0.0566
     48 O         1.581142   1.569094   -2.534027 O.3        1 UNL1     -0.3909
     49 C         0.95063   -0.446857   -0.142271 C.3        1 UNL1     -0.0577
     50 O         2.693625   2.092013   1.732785 O.3        1 UNL1     -0.3910
     51 O         2.103853   1.396221   4.43332 O.3        1 UNL1     -0.3753
     52 C         -0.747151   0.226551   2.286759 C.3        1 UNL1     -0.0564
     53 O         1.254233   -2.361396   2.383564 O.3        1 UNL1     -0.4608
     54 C         1.512826   -3.568946   2.977603 C.2        1 UNL1     0.3042
     55 O         2.388364   -4.37835   2.67406 O.2        1 UNL1     -0.2512
     56 C         0.633052   -3.857932   4.160479 C.3        1 UNL1     0.0332
     57 C         3.965808   -0.112886   3.538835 C.3        1 UNL1     -0.0567
     58 C         -2.364276   3.914914   4.094044 C.3        1 UNL1     0.0210
     59 C         2.831501   0.293182   4.971556 C.3        1 UNL1     0.0372
     60 C         0.132786   2.438146   3.768392 C.2        1 UNL1     -0.0208
     61 C         0.671405   3.654007   3.66682 C.2        1 UNL1     0.0882
     62 H         0.518744   4.039354   -0.682147 H        1 UNL1     0.0365
     63 H         -0.764903   5.513053   -1.274339 H        1 UNL1     0.0576
     64 H         -1.169315   5.475229   -4.329138 H        1 UNL1     0.0615
     65 H         -2.449632   7.165225   -2.03511 H        1 UNL1     0.0622
     66 H         0.268738   0.92448   5.186303 H        1 UNL1     0.0645
     67 H         -0.182187   -0.761224   3.979955 H        1 UNL1     0.0362
     68 H         1.927235   -1.365036   3.93843 H        1 UNL1     0.0741
     69 H         3.532356   -1.133729   1.841653 H        1 UNL1     0.0359
     70 H         3.876729   0.797552   0.768773 H        1 UNL1     0.0600
     71 H         2.669588   0.291994   -0.960948 H        1 UNL1     0.0348
     72 H         1.800708   2.538839   -0.602086 H        1 UNL1     0.0602
     73 H         -0.911865   2.307384   3.631083 H        1 UNL1     0.0628
     74 H         1.739493   3.863014   3.735672 H        1 UNL1     0.1022
     75 H         -4.052198   6.908496   -5.798893 H        1 UNL1     0.0279
     76 H         -5.401874   7.691357   -5.078613 H        1 UNL1     0.0279
     77 H         -3.946098   8.61214   -5.633746 H        1 UNL1     0.0279
     78 H         -5.937968   6.719275   -3.114646 H        1 UNL1     0.1553
     79 H         -4.928785   5.02347   -3.293589 H        1 UNL1     0.1484
     80 H         -4.385927   1.817596   -1.327076 H        1 UNL1     0.0317
     81 H         -5.452058   3.101828   -0.775678 H        1 UNL1     0.0317
     82 H         -6.282528   3.494087   -3.110235 H        1 UNL1     0.0428
     83 H         -6.519531   1.84474   -2.576206 H        1 UNL1     0.0428
     84 H         -3.175795   2.564812   -5.106831 H        1 UNL1     0.0428
     85 H         -4.173159   3.929773   -4.744517 H        1 UNL1     0.0428
     86 H         -2.067095   3.687224   -3.429027 H        1 UNL1     0.0317
     87 H         -2.529301   2.181874   -2.778922 H        1 UNL1     0.0317
     88 H         -5.034612   1.335324   -5.880562 H        1 UNL1     0.0429
     89 H         -6.265635   0.689939   -4.792309 H        1 UNL1     0.0429
     90 H         -7.454474   2.224127   -6.196854 H        1 UNL1     0.0308
     91 H         -7.198248   2.905936   -3.459601 H        1 UNL1     0.0233
     92 H         -7.000987   4.448808   -4.329159 H        1 UNL1     0.0233
     93 H         -8.453409   3.495178   -4.542851 H        1 UNL1     0.0233
     94 H         -5.819154   4.623693   -5.98669 H        1 UNL1     0.0233
     95 H         -4.945829   3.264943   -6.711556 H        1 UNL1     0.0233
     96 H         -6.481856   3.813698   -7.42112 H        1 UNL1     0.0233
     97 H         -2.672931   8.170445   5.147709 H        1 UNL1     0.0280
     98 H         -3.80738   9.379786   4.611324 H        1 UNL1     0.0280
     99 H         -4.407762   7.811591   5.227797 H        1 UNL1     0.0280
     100 H         -6.11583   9.006161   1.77495 H        1 UNL1     0.2922
     101 H         2.317196   5.279981   -1.541372 H        1 UNL1     0.0236
     102 H         2.410322   4.337755   -3.080722 H        1 UNL1     0.0236
     103 H         2.9382   3.659104   -1.57199 H        1 UNL1     0.0236
     104 H         2.060164   0.730269   -2.386103 H        1 UNL1     0.2098
     105 H         0.892068   -1.079929   -1.024088 H        1 UNL1     0.0234
     106 H         1.084715   -1.055771   0.751693 H        1 UNL1     0.0234
     107 H         0.0   0.0   0.0 H        1 UNL1     0.0234
     108 H         2.66826   2.740823   1.003284 H        1 UNL1     0.2098
     109 H         -0.60087   1.197715   1.793652 H        1 UNL1     0.0234
     110 H         -0.875768   -0.553586   1.528744 H        1 UNL1     0.0234
     111 H         -1.728375   0.286512   2.776197 H        1 UNL1     0.0234
     112 H         0.904327   -4.823005   4.599102 H        1 UNL1     0.0342
     113 H         0.674703   -3.064679   4.905367 H        1 UNL1     0.0342
     114 H         -0.404856   -3.92848   3.807018 H        1 UNL1     0.0342
     115 H         5.011363   -0.243777   3.227596 H        1 UNL1     0.0234
     116 H         3.879795   0.87621   3.993081 H        1 UNL1     0.0234
     117 H         3.887046   -0.864861   4.342745 H        1 UNL1     0.0234
     118 H         -3.281545   4.399491   4.471944 H        1 UNL1     0.0309
     119 H         -2.642381   3.089252   3.431366 H        1 UNL1     0.0309
     120 H         -1.935046   3.453252   4.989999 H        1 UNL1     0.0309
     121 H         3.668547   0.696617   5.540723 H        1 UNL1     0.0524
     122 H         2.221973   -0.313104   5.662158 H        1 UNL1     0.0524
     123 H         3.195359   -0.343894   4.17041 H        1 UNL1     0.0524
@<TRIPOS>BOND
     1     1     2    1
     2     1    42    1
     3     2     3    2
     4     3     4    1
     5     4     5    2
     6     5     7    1
     7     6    75    1
     8     6    76    1
     9     6    77    1
    10     7     9   am
    11     9    10    1
    12    10    11    2
    13    10    43    1
    14    11    14    1
    15    11    15    1
    16    12    13   ar
    17    12    27   ar
    18    12    43    1
    19    13    14    1
    20    13    30   ar
    21    14    17    2
    22    15    16    1
    23    16    17    1
    24    16    18    1
    25    16    22    1
    26    18    19    1
    27    19    20    1
    28    20    21    1
    29    21    22    1
    30    23    24    1
    31    23    88    1
    32    23    89    1
    33    24    25    1
    34    24    26    1
    35    24    90    1
    36    25    91    1
    37    25    92    1
    38    25    93    1
    39    26    94    1
    40    26    95    1
    41    26    96    1
    42    27    28   ar
    43    28    29   ar
    44    29    30   ar
    45    29    31    1
    46    30    33    1
    47    31    32    1
    48    32    33    1
    49    32    35    1
    50    34    97    1
    51    34    98    1
    52    34    99    1
    53    35    61    1
    54    36    37    1
    55    36    60    1
    56    37    38    1
    57    38    39    1
    58    39    40    1
    59    40    41    1
    60    41    42    1
    61    45   100    1
    62    47   101    1
    63    47   102    1
    64    47   103    1
    65    48   104    1
    66    49   105    1
    67    49   106    1
    68    49   107    1
    69    50   108    1
    70    51    59    1
    71    52   109    1
    72    52   110    1
    73    52   111    1
    74    53    54    1
    75    54    55    2
    76    54    56    1
    77    56   112    1
    78    56   113    1
    79    56   114    1
    80    57   115    1
    81    57   116    1
    82    57   117    1
    83    58   118    1
    84    58   119    1
    85    58   120    1
    86    59   121    1
    87    59   122    1
    88    59   123    1
    89    60    61    2
    90     1    47    1
    91     1    62    1
    92     2    63    1
    93     3    64    1
    94     4    65    1
    95     5     6    1
    96     7     8    2
    97     9    78    1
    98    15    79    1
    99    18    80    1
   100    18    81    1
   101    19    82    1
   102    19    83    1
   103    20    23    1
   104    21    84    1
   105    21    85    1
   106    22    86    1
   107    22    87    1
   108    27    45    1
   109    28    34    1
   110    32    58    1
   111    33    46    2
   112    36    51    1
   113    36    66    1
   114    37    52    1
   115    37    67    1
   116    38    53    1
   117    38    68    1
   118    42    48    1
   119    42    72    1
   120    43    44    2
   121    60    73    1
   122    61    74    1
   123    39    69    1
   124    39    57    1
   125    40    70    1
   126    40    50    1
   127    41    71    1
   128    41    49    1
