@<TRIPOS>MOLECULE
*****
 123 128 0 0 0
SMALL
GASTEIGER

@<TRIPOS>ATOM
     1 C         -3.638004   -0.973394   1.995077 C.3        1 UNL1     0.0009
     2 C         -4.466625   -0.192935   3.458398 C.2        1 UNL1     -0.0787
     3 C         -4.633602   -0.073635   4.891553 C.2        1 UNL1     -0.0649
     4 C         -5.586151   1.040265   5.739041 C.2        1 UNL1     -0.0542
     5 C         -5.800661   1.66977   6.989955 C.2        1 UNL1     0.0115
     6 C         -5.404665   1.648008   8.491966 C.3        1 UNL1     -0.0348
     7 C         -6.668737   3.019116   7.041882 C.2        1 UNL1     0.2441
     8 O         -7.835398   3.046087   7.408899 O.2        1 UNL1     -0.2702
     9 N         -5.926646   4.20313   6.888372 N.am        1 UNL1     -0.2772
     10 C         -5.806402   4.525156   5.556019 C.2        1 UNL1     0.1049
     11 C         -4.841966   3.912296   4.893837 C.2        1 UNL1     0.0801
     12 C         -7.133281   4.792745   3.452422 C.ar        1 UNL1     0.0753
     13 C         -6.164296   3.945597   2.826308 C.ar        1 UNL1     0.0305
     14 C         -4.916169   3.585874   3.495509 C.2        1 UNL1     0.0924
     15 N         -3.814789   3.174878   5.349524 N.pl3        1 UNL1     -0.3170
     16 C         -2.955676   2.880954   4.233375 C.3        1 UNL1     0.1275
     17 N         -3.87276   2.901697   3.034938 N.2        1 UNL1     -0.2557
     18 C         -2.011551   4.067498   4.064729 C.3        1 UNL1     0.0016
     19 C         -1.279279   4.296722   5.377293 C.3        1 UNL1     0.0026
     20 N         -0.544426   3.087057   5.72041 N.3        1 UNL1     -0.3018
     21 C         -1.360802   1.877671   5.844046 C.3        1 UNL1     0.0026
     22 C         -2.083729   1.663971   4.51303 C.3        1 UNL1     0.0016
     23 C         0.417604   3.294335   6.784448 C.3        1 UNL1     0.0012
     24 C         0.67763   4.794868   6.990707 C.3        1 UNL1     -0.0339
     25 C         -0.452588   5.455879   7.796764 C.3        1 UNL1     -0.0615
     26 C         2.030025   5.003285   7.649775 C.3        1 UNL1     -0.0615
     27 C         -8.262742   5.229118   2.763935 C.ar        1 UNL1     0.1347
     28 C         -8.510147   4.917986   1.438779 C.ar        1 UNL1     0.0342
     29 C         -7.56782   4.043016   0.857737 C.ar        1 UNL1     0.1435
     30 C         -6.450624   3.568676   1.546285 C.ar        1 UNL1     0.0774
     31 O         -7.609633   3.734362   -0.456794 O.3        1 UNL1     -0.4436
     32 C         -6.291666   3.251583   -0.758057 C.3        1 UNL1     0.3143
     33 C         -5.729207   2.781515   0.568174 C.2        1 UNL1     0.2504
     34 C         -9.559325   5.548636   0.566078 C.3        1 UNL1     -0.0327
     35 O         -6.441885   2.089546   -1.582894 O.2        1 UNL1     -0.4528
     36 C         -3.362177   1.981338   -3.799147 C.3        1 UNL1     0.0854
     37 C         -1.839974   1.940882   -3.388316 C.3        1 UNL1     0.0236
     38 C         -1.005444   0.71875   -4.006134 C.3        1 UNL1     0.1131
     39 C         -1.555496   -0.757786   -3.866303 C.3        1 UNL1     0.0200
     40 C         -2.196759   -1.287095   -2.420256 C.3        1 UNL1     0.0661
     41 C         -1.470964   -1.130862   -0.894995 C.3        1 UNL1     0.0091
     42 C         -2.222745   -0.905619   0.763165 C.3        1 UNL1     0.0661
     43 C         -6.850493   5.264276   4.830808 C.2        1 UNL1     0.2131
     44 O         -7.356182   6.258583   5.31904 O.2        1 UNL1     -0.2851
     45 O         -9.179687   6.013726   3.460384 O.3        1 UNL1     -0.5056
     46 O         -4.890552   1.932551   0.772558 O.2        1 UNL1     -0.2836
     47 C         -4.186107   -2.407729   1.766502 C.3        1 UNL1     -0.0566
     48 O         -1.39392   -1.953399   1.406845 O.3        1 UNL1     -0.3909
     49 C         -0.326218   -0.147752   -0.997683 C.3        1 UNL1     -0.0577
     50 O         -3.571605   -0.970235   -2.335858 O.3        1 UNL1     -0.3910
     51 O         -3.839635   0.8587   -4.505652 O.3        1 UNL1     -0.3753
     52 C         -1.619093   2.442041   -1.923734 C.3        1 UNL1     -0.0564
     53 O         0.481433   0.890873   -3.897068 O.3        1 UNL1     -0.4608
     54 C         1.41812   -0.046294   -4.246732 C.2        1 UNL1     0.3042
     55 O         1.6144   -1.139629   -3.717647 O.2        1 UNL1     -0.2512
     56 C         2.229765   0.335199   -5.451891 C.3        1 UNL1     0.0332
     57 C         -2.355661   -1.103389   -5.207373 C.3        1 UNL1     -0.0567
     58 C         -5.477302   4.474767   -1.23989 C.3        1 UNL1     0.0210
     59 C         -5.084978   0.34189   -4.038859 C.3        1 UNL1     0.0372
     60 C         -4.310456   2.217155   -2.676508 C.2        1 UNL1     -0.0208
     61 C         -5.463083   1.616314   -2.377868 C.2        1 UNL1     0.0882
     62 H         -4.214329   -0.309917   1.33906 H        1 UNL1     0.0365
     63 H         -5.196596   0.448852   2.96068 H        1 UNL1     0.0576
     64 H         -3.997388   -0.622322   5.589609 H        1 UNL1     0.0615
     65 H         -6.231589   1.470637   4.96854 H        1 UNL1     0.0622
     66 H         -3.44776   2.858966   -4.455264 H        1 UNL1     0.0645
     67 H         -1.395967   2.800632   -3.919586 H        1 UNL1     0.0362
     68 H         -1.089315   0.961211   -5.076508 H        1 UNL1     0.0741
     69 H         -0.740615   -1.449879   -4.031788 H        1 UNL1     0.0359
     70 H         -2.174862   -2.380481   -2.590806 H        1 UNL1     0.0600
     71 H         -0.925977   -2.093672   -0.840738 H        1 UNL1     0.0348
     72 H         -3.020452   -1.305211   0.120276 H        1 UNL1     0.0602
     73 H         -4.00823   3.081977   -2.13986 H        1 UNL1     0.0628
     74 H         -5.815503   0.693732   -2.840339 H        1 UNL1     0.1022
     75 H         -6.169017   1.096624   9.090945 H        1 UNL1     0.0279
     76 H         -4.486102   1.122824   8.743944 H        1 UNL1     0.0279
     77 H         -5.442783   2.644326   8.956291 H        1 UNL1     0.0279
     78 H         -4.987452   4.068363   7.256922 H        1 UNL1     0.1553
     79 H         -3.484642   3.204851   6.296644 H        1 UNL1     0.1484
     80 H         -1.311792   3.854281   3.247635 H        1 UNL1     0.0317
     81 H         -2.563437   4.968947   3.777568 H        1 UNL1     0.0317
     82 H         -1.969916   4.582612   6.184263 H        1 UNL1     0.0428
     83 H         -0.612922   5.148112   5.235326 H        1 UNL1     0.0428
     84 H         -0.775972   0.970093   6.023181 H        1 UNL1     0.0428
     85 H         -2.041846   1.930421   6.704693 H        1 UNL1     0.0428
     86 H         -2.562689   0.705853   4.594241 H        1 UNL1     0.0317
     87 H         -1.352507   1.514851   3.70918 H        1 UNL1     0.0317
     88 H         -0.003512   2.88205   7.710718 H        1 UNL1     0.0429
     89 H         1.352438   2.75383   6.58769 H        1 UNL1     0.0429
     90 H         0.742266   5.285991   6.012528 H        1 UNL1     0.0308
     91 H         -1.429839   5.051014   7.517181 H        1 UNL1     0.0233
     92 H         -0.297981   5.311692   8.868639 H        1 UNL1     0.0233
     93 H         -0.500072   6.539992   7.637769 H        1 UNL1     0.0233
     94 H         1.986873   4.705305   8.702952 H        1 UNL1     0.0233
     95 H         2.785601   4.386211   7.155521 H        1 UNL1     0.0233
     96 H         2.341352   6.050427   7.599392 H        1 UNL1     0.0233
     97 H         -10.521253   5.611498   1.066051 H        1 UNL1     0.0280
     98 H         -9.299407   6.577312   0.284075 H        1 UNL1     0.0280
     99 H         -9.685016   4.950148   -0.351042 H        1 UNL1     0.0280
     100 H         -9.014068   6.939194   3.419123 H        1 UNL1     0.2922
     101 H         -3.631924   -3.115597   2.382505 H        1 UNL1     0.0236
     102 H         -4.197337   -2.70013   0.717045 H        1 UNL1     0.0236
     103 H         -5.233217   -2.508574   2.097536 H        1 UNL1     0.0236
     104 H         -1.850806   -2.808323   1.283031 H        1 UNL1     0.2098
     105 H         0.522283   -0.50521   -1.575682 H        1 UNL1     0.0234
     106 H         -0.612268   0.851675   -1.325172 H        1 UNL1     0.0234
     107 H         0.0   0.0   0.0 H        1 UNL1     0.0234
     108 H         -3.944944   -1.492195   -1.59969 H        1 UNL1     0.2098
     109 H         -0.967325   3.325798   -1.880331 H        1 UNL1     0.0234
     110 H         -2.555087   2.650702   -1.39447 H        1 UNL1     0.0234
     111 H         -1.127606   1.679563   -1.304853 H        1 UNL1     0.0234
     112 H         1.698393   0.048408   -6.364437 H        1 UNL1     0.0342
     113 H         2.476579   1.39579   -5.460432 H        1 UNL1     0.0342
     114 H         3.173832   -0.226025   -5.421412 H        1 UNL1     0.0342
     115 H         -1.970629   -2.012258   -5.689966 H        1 UNL1     0.0234
     116 H         -3.429179   -1.238712   -5.06144 H        1 UNL1     0.0234
     117 H         -2.212156   -0.359087   -6.009472 H        1 UNL1     0.0234
     118 H         -5.377473   4.499446   -2.339177 H        1 UNL1     0.0309
     119 H         -5.890511   5.428393   -0.896293 H        1 UNL1     0.0309
     120 H         -4.438632   4.451567   -0.892424 H        1 UNL1     0.0309
     121 H         -5.734885   0.21597   -4.904378 H        1 UNL1     0.0524
     122 H         -4.975093   -0.645269   -3.559818 H        1 UNL1     0.0524
     123 H         -5.535146   1.030092   -3.329056 H        1 UNL1     0.0524
@<TRIPOS>BOND
     1     1     2    1
     2     1    42    1
     3     2     3    2
     4     3     4    1
     5     4     5    2
     6     5     7    1
     7     6    75    1
     8     6    76    1
     9     6    77    1
    10     7     9   am
    11     9    10    1
    12    10    11    2
    13    10    43    1
    14    11    14    1
    15    11    15    1
    16    12    13   ar
    17    12    27   ar
    18    12    43    1
    19    13    14    1
    20    13    30   ar
    21    14    17    2
    22    15    16    1
    23    16    17    1
    24    16    18    1
    25    16    22    1
    26    18    19    1
    27    19    20    1
    28    20    21    1
    29    21    22    1
    30    23    24    1
    31    23    88    1
    32    23    89    1
    33    24    25    1
    34    24    26    1
    35    24    90    1
    36    25    91    1
    37    25    92    1
    38    25    93    1
    39    26    94    1
    40    26    95    1
    41    26    96    1
    42    27    28   ar
    43    28    29   ar
    44    29    30   ar
    45    29    31    1
    46    30    33    1
    47    31    32    1
    48    32    33    1
    49    32    35    1
    50    34    97    1
    51    34    98    1
    52    34    99    1
    53    35    61    1
    54    36    37    1
    55    36    60    1
    56    37    38    1
    57    38    39    1
    58    39    40    1
    59    40    41    1
    60    41    42    1
    61    45   100    1
    62    47   101    1
    63    47   102    1
    64    47   103    1
    65    48   104    1
    66    49   105    1
    67    49   106    1
    68    49   107    1
    69    50   108    1
    70    51    59    1
    71    52   109    1
    72    52   110    1
    73    52   111    1
    74    53    54    1
    75    54    55    2
    76    54    56    1
    77    56   112    1
    78    56   113    1
    79    56   114    1
    80    57   115    1
    81    57   116    1
    82    57   117    1
    83    58   118    1
    84    58   119    1
    85    58   120    1
    86    59   121    1
    87    59   122    1
    88    59   123    1
    89    60    61    2
    90     1    47    1
    91     1    62    1
    92     2    63    1
    93     3    64    1
    94     4    65    1
    95     5     6    1
    96     7     8    2
    97     9    78    1
    98    15    79    1
    99    18    80    1
   100    18    81    1
   101    19    82    1
   102    19    83    1
   103    20    23    1
   104    21    84    1
   105    21    85    1
   106    22    86    1
   107    22    87    1
   108    27    45    1
   109    28    34    1
   110    32    58    1
   111    33    46    2
   112    36    51    1
   113    36    66    1
   114    37    52    1
   115    37    67    1
   116    38    53    1
   117    38    68    1
   118    42    48    1
   119    42    72    1
   120    43    44    2
   121    60    73    1
   122    61    74    1
   123    39    69    1
   124    39    57    1
   125    40    70    1
   126    40    50    1
   127    41    71    1
   128    41    49    1
