@<TRIPOS>MOLECULE
*****
 123 128 0 0 0
SMALL
GASTEIGER

@<TRIPOS>ATOM
     1 C         3.080833   3.333537   3.067206 C.3        1 UNL1     0.0009
     2 C         4.044976   4.916194   3.11882 C.2        1 UNL1     -0.0787
     3 C         5.311644   5.616792   3.091268 C.2        1 UNL1     -0.0649
     4 C         5.575471   7.288792   3.057068 C.2        1 UNL1     -0.0542
     5 C         6.506112   8.311264   2.747979 C.2        1 UNL1     0.0115
     6 C         7.988501   8.590995   2.377041 C.3        1 UNL1     -0.0348
     7 C         5.972339   9.811079   2.541506 C.2        1 UNL1     0.2441
     8 O         6.081959   10.679907   3.3957 O.2        1 UNL1     -0.2702
     9 N         5.607296   10.129904   1.221943 N.am        1 UNL1     -0.2772
     10 C         4.28971   9.80389   0.996102 C.2        1 UNL1     0.1049
     11 C         4.046584   8.542594   0.689109 C.2        1 UNL1     0.0801
     12 C         1.992263   10.053937   1.953465 C.ar        1 UNL1     0.0753
     13 C         1.855752   8.638394   1.791569 C.ar        1 UNL1     0.0305
     14 C         2.829814   7.857645   1.032171 C.2        1 UNL1     0.0924
     15 N         4.895531   7.556275   0.352968 N.pl3        1 UNL1     -0.3170
     16 C         4.11096   6.420756   -0.053605 C.3        1 UNL1     0.1275
     17 N         2.811682   6.570012   0.699604 N.2        1 UNL1     -0.2557
     18 C         3.769838   6.611546   -1.528372 C.3        1 UNL1     0.0016
     19 C         5.063009   6.792396   -2.307212 C.3        1 UNL1     0.0026
     20 N         5.896305   5.614314   -2.110318 N.3        1 UNL1     -0.3018
     21 C         6.227055   5.312703   -0.716042 C.3        1 UNL1     0.0026
     22 C         4.913705   5.130373   0.046691 C.3        1 UNL1     0.0016
     23 C         7.008776   5.549166   -3.037037 C.3        1 UNL1     0.0012
     24 C         6.508261   5.252196   -4.459377 C.3        1 UNL1     -0.0339
     25 C         6.452667   6.529114   -5.314038 C.3        1 UNL1     -0.0615
     26 C         7.375452   4.185112   -5.104429 C.3        1 UNL1     -0.0615
     27 C         0.999423   10.808493   2.573976 C.ar        1 UNL1     0.1347
     28 C         -0.187137   10.26715   3.035575 C.ar        1 UNL1     0.0342
     29 C         -0.278202   8.864664   2.90946 C.ar        1 UNL1     0.1435
     30 C         0.724027   8.091043   2.322717 C.ar        1 UNL1     0.0774
     31 O         -1.416137   8.2023   3.211759 O.3        1 UNL1     -0.4436
     32 C         -1.295091   6.944093   2.531218 C.3        1 UNL1     0.3143
     33 C         0.193495   6.743736   2.330762 C.2        1 UNL1     0.2504
     34 C         -1.396028   11.042512   3.47998 C.3        1 UNL1     -0.0327
     35 O         -1.734796   5.925358   3.43791 O.2        1 UNL1     -0.4528
     36 C         -3.175159   3.158423   1.275153 C.3        1 UNL1     0.0854
     37 C         -2.48751   2.340271   0.115288 C.3        1 UNL1     0.0236
     38 C         -2.526667   0.747374   0.296652 C.3        1 UNL1     0.1131
     39 C         -2.047426   0.100168   1.658166 C.3        1 UNL1     0.0200
     40 C         -0.660148   0.64229   2.409167 C.3        1 UNL1     0.0661
     41 C         0.852451   0.852211   1.670528 C.3        1 UNL1     0.0091
     42 C         2.183848   2.067889   2.009514 C.3        1 UNL1     0.0661
     43 C         3.185838   10.705134   1.35884 C.2        1 UNL1     0.2131
     44 O         3.237542   11.889245   1.079652 O.2        1 UNL1     -0.2851
     45 O         1.230725   12.173348   2.732435 O.3        1 UNL1     -0.5056
     46 O         0.8064   5.705067   2.224143 O.2        1 UNL1     -0.2836
     47 C         3.20416   2.582588   4.420294 C.3        1 UNL1     -0.0566
     48 O         3.265429   1.053356   2.0141 O.3        1 UNL1     -0.3909
     49 C         0.673955   0.800411   0.169545 C.3        1 UNL1     -0.0577
     50 O         -0.943119   1.741305   3.251673 O.3        1 UNL1     -0.3910
     51 O         -3.57958   2.411241   2.40014 O.3        1 UNL1     -0.3753
     52 C         -1.234626   3.081289   -0.455784 C.3        1 UNL1     -0.0564
     53 O         -2.192446   -0.008122   -0.956284 O.3        1 UNL1     -0.4608
     54 C         -1.752567   -1.304892   -1.009416 C.2        1 UNL1     0.3042
     55 O         -0.600741   -1.695852   -1.19458 O.2        1 UNL1     -0.2512
     56 C         -2.831979   -2.317167   -0.750801 C.3        1 UNL1     0.0332
     57 C         -3.34437   -0.130766   2.565238 C.3        1 UNL1     -0.0567
     58 C         -1.964256   7.128133   1.149235 C.3        1 UNL1     0.0210
     59 C         -4.670285   2.970443   3.130566 C.3        1 UNL1     0.0372
     60 C         -2.383777   4.310394   1.786855 C.2        1 UNL1     -0.0208
     61 C         -2.141891   4.705553   3.037489 C.2        1 UNL1     0.0882
     62 H         2.154569   3.918551   3.117267 H        1 UNL1     0.0365
     63 H         3.24339   5.637364   3.291572 H        1 UNL1     0.0576
     64 H         6.253243   5.09053   2.919373 H        1 UNL1     0.0615
     65 H         4.60102   7.711731   3.316008 H        1 UNL1     0.0622
     66 H         -4.073192   3.591535   0.812555 H        1 UNL1     0.0645
     67 H         -3.161984   2.479585   -0.747403 H        1 UNL1     0.0362
     68 H         -3.614839   0.585171   0.263584 H        1 UNL1     0.0741
     69 H         -1.832041   -0.946475   1.489176 H        1 UNL1     0.0359
     70 H         -0.478241   -0.199538   3.104362 H        1 UNL1     0.0600
     71 H         1.304108   -0.139395   1.869727 H        1 UNL1     0.0348
     72 H         1.554591   2.048008   2.911154 H        1 UNL1     0.0602
     73 H         -2.091917   4.92363   0.970762 H        1 UNL1     0.0628
     74 H         -2.356488   4.109299   3.924995 H        1 UNL1     0.1022
     75 H         8.546638   7.633054   2.243375 H        1 UNL1     0.0279
     76 H         8.164463   9.09857   1.431274 H        1 UNL1     0.0279
     77 H         8.551766   9.057263   3.198642 H        1 UNL1     0.0279
     78 H         6.172606   9.58934   0.570566 H        1 UNL1     0.1553
     79 H         5.832277   7.713797   0.029508 H        1 UNL1     0.1484
     80 H         3.208484   5.738037   -1.8814 H        1 UNL1     0.0317
     81 H         3.118717   7.4808   -1.67011 H        1 UNL1     0.0317
     82 H         5.594308   7.707648   -2.007299 H        1 UNL1     0.0428
     83 H         4.796583   6.928603   -3.35579 H        1 UNL1     0.0428
     84 H         6.785727   4.380118   -0.589625 H        1 UNL1     0.0428
     85 H         6.881992   6.077723   -0.27659 H        1 UNL1     0.0428
     86 H         5.192368   4.782117   1.023959 H        1 UNL1     0.0317
     87 H         4.351001   4.287218   -0.372296 H        1 UNL1     0.0317
     88 H         7.508934   6.526473   -3.039477 H        1 UNL1     0.0429
     89 H         7.752245   4.8082   -2.716106 H        1 UNL1     0.0429
     90 H         5.499893   4.82525   -4.403485 H        1 UNL1     0.0308
     91 H         7.366711   7.120564   -5.20535 H        1 UNL1     0.0233
     92 H         6.30852   6.282214   -6.368492 H        1 UNL1     0.0233
     93 H         5.616414   7.181847   -5.03573 H        1 UNL1     0.0233
     94 H         7.293191   4.240115   -6.195321 H        1 UNL1     0.0233
     95 H         8.423922   4.343707   -4.836997 H        1 UNL1     0.0233
     96 H         7.077615   3.182329   -4.785544 H        1 UNL1     0.0233
     97 H         -2.243366   10.394642   3.683724 H        1 UNL1     0.0280
     98 H         -1.212661   11.598485   4.408704 H        1 UNL1     0.0280
     99 H         -1.687758   11.755246   2.69131 H        1 UNL1     0.0280
     100 H         0.522607   12.725702   2.451194 H        1 UNL1     0.2922
     101 H         2.38708   1.868411   4.520232 H        1 UNL1     0.0236
     102 H         3.269566   3.251805   5.277531 H        1 UNL1     0.0236
     103 H         4.119488   1.969634   4.471822 H        1 UNL1     0.0236
     104 H         3.345145   0.711329   2.92604 H        1 UNL1     0.2098
     105 H         0.239365   1.698438   -0.262302 H        1 UNL1     0.0234
     106 H         1.565304   0.50769   -0.385198 H        1 UNL1     0.0234
     107 H         0.0   0.0   -0.0 H        1 UNL1     0.0234
     108 H         -1.187188   2.492183   2.676885 H        1 UNL1     0.2098
     109 H         -0.475103   3.26953   0.315838 H        1 UNL1     0.0234
     110 H         -0.77528   2.560179   -1.302654 H        1 UNL1     0.0234
     111 H         -1.497511   4.067535   -0.860948 H        1 UNL1     0.0234
     112 H         -2.411692   -3.326824   -0.786841 H        1 UNL1     0.0342
     113 H         -3.341777   -2.139703   0.194956 H        1 UNL1     0.0342
     114 H         -3.578988   -2.234528   -1.552244 H        1 UNL1     0.0342
     115 H         -4.123968   -0.688837   2.028608 H        1 UNL1     0.0234
     116 H         -3.144665   -0.66081   3.49863 H        1 UNL1     0.0234
     117 H         -3.880894   0.801746   2.811213 H        1 UNL1     0.0234
     118 H         -2.947549   6.628941   1.094935 H        1 UNL1     0.0309
     119 H         -2.079717   8.178692   0.864287 H        1 UNL1     0.0309
     120 H         -1.396001   6.655345   0.340741 H        1 UNL1     0.0309
     121 H         -4.596371   2.61421   4.157694 H        1 UNL1     0.0524
     122 H         -4.634355   4.072258   3.15794 H        1 UNL1     0.0524
     123 H         -5.614594   2.659232   2.692933 H        1 UNL1     0.0524
@<TRIPOS>BOND
     1     1     2    1
     2     1    42    1
     3     2     3    2
     4     3     4    1
     5     4     5    2
     6     5     7    1
     7     6    75    1
     8     6    76    1
     9     6    77    1
    10     7     9   am
    11     9    10    1
    12    10    11    2
    13    10    43    1
    14    11    14    1
    15    11    15    1
    16    12    13   ar
    17    12    27   ar
    18    12    43    1
    19    13    14    1
    20    13    30   ar
    21    14    17    2
    22    15    16    1
    23    16    17    1
    24    16    18    1
    25    16    22    1
    26    18    19    1
    27    19    20    1
    28    20    21    1
    29    21    22    1
    30    23    24    1
    31    23    88    1
    32    23    89    1
    33    24    25    1
    34    24    26    1
    35    24    90    1
    36    25    91    1
    37    25    92    1
    38    25    93    1
    39    26    94    1
    40    26    95    1
    41    26    96    1
    42    27    28   ar
    43    28    29   ar
    44    29    30   ar
    45    29    31    1
    46    30    33    1
    47    31    32    1
    48    32    33    1
    49    32    35    1
    50    34    97    1
    51    34    98    1
    52    34    99    1
    53    35    61    1
    54    36    37    1
    55    36    60    1
    56    37    38    1
    57    38    39    1
    58    39    40    1
    59    40    41    1
    60    41    42    1
    61    45   100    1
    62    47   101    1
    63    47   102    1
    64    47   103    1
    65    48   104    1
    66    49   105    1
    67    49   106    1
    68    49   107    1
    69    50   108    1
    70    51    59    1
    71    52   109    1
    72    52   110    1
    73    52   111    1
    74    53    54    1
    75    54    55    2
    76    54    56    1
    77    56   112    1
    78    56   113    1
    79    56   114    1
    80    57   115    1
    81    57   116    1
    82    57   117    1
    83    58   118    1
    84    58   119    1
    85    58   120    1
    86    59   121    1
    87    59   122    1
    88    59   123    1
    89    60    61    2
    90     1    47    1
    91     1    62    1
    92     2    63    1
    93     3    64    1
    94     4    65    1
    95     5     6    1
    96     7     8    2
    97     9    78    1
    98    15    79    1
    99    18    80    1
   100    18    81    1
   101    19    82    1
   102    19    83    1
   103    20    23    1
   104    21    84    1
   105    21    85    1
   106    22    86    1
   107    22    87    1
   108    27    45    1
   109    28    34    1
   110    32    58    1
   111    33    46    2
   112    36    51    1
   113    36    66    1
   114    37    52    1
   115    37    67    1
   116    38    53    1
   117    38    68    1
   118    42    48    1
   119    42    72    1
   120    43    44    2
   121    60    73    1
   122    61    74    1
   123    39    69    1
   124    39    57    1
   125    40    70    1
   126    40    50    1
   127    41    71    1
   128    41    49    1
