@<TRIPOS>MOLECULE
*****
 123 128 0 0 0
SMALL
GASTEIGER

@<TRIPOS>ATOM
     1 C         5.168298   1.7455   0.491112 C.3        1 UNL1     0.0009
     2 C         6.605389   2.550912   -0.359252 C.2        1 UNL1     -0.0787
     3 C         7.887134   2.452082   -1.025142 C.2        1 UNL1     -0.0649
     4 C         8.76526   3.686832   -1.780553 C.2        1 UNL1     -0.0542
     5 C         9.785363   3.979055   -2.719208 C.2        1 UNL1     0.0115
     6 C         10.913081   3.353107   -3.585097 C.3        1 UNL1     -0.0348
     7 C         9.881549   5.462386   -3.325398 C.2        1 UNL1     0.2441
     8 O         10.70598   6.283443   -2.947634 O.2        1 UNL1     -0.2702
     9 N         9.131326   5.670072   -4.495947 N.am        1 UNL1     -0.2772
     10 C         7.848884   6.057474   -4.181966 C.2        1 UNL1     0.1049
     11 C         7.002532   5.086519   -3.890152 C.2        1 UNL1     0.0801
     12 C         6.551637   7.664616   -2.770732 C.ar        1 UNL1     0.0753
     13 C         5.791934   6.53707   -2.323407 C.ar        1 UNL1     0.0305
     14 C         5.90799   5.231439   -2.969093 C.2        1 UNL1     0.0924
     15 N         7.124316   3.7575   -4.049546 N.pl3        1 UNL1     -0.3170
     16 C         5.854122   3.159044   -3.735362 C.3        1 UNL1     0.1275
     17 N         5.218419   4.114455   -2.755162 N.2        1 UNL1     -0.2557
     18 C         5.001172   3.218917   -4.998926 C.3        1 UNL1     0.0016
     19 C         5.755507   2.534607   -6.127769 C.3        1 UNL1     0.0026
     20 N         6.024843   1.156255   -5.742242 N.3        1 UNL1     -0.3018
     21 C         6.788237   0.995119   -4.503035 C.3        1 UNL1     0.0026
     22 C         6.01004   1.685873   -3.381802 C.3        1 UNL1     0.0016
     23 C         6.468722   0.336686   -6.852162 C.3        1 UNL1     0.0012
     24 C         5.313016   0.088138   -7.834161 C.3        1 UNL1     -0.0339
     25 C         5.33906   1.091555   -8.998864 C.3        1 UNL1     -0.0615
     26 C         5.351471   -1.346484   -8.331314 C.3        1 UNL1     -0.0615
     27 C         6.347817   8.932317   -2.230818 C.ar        1 UNL1     0.1347
     28 C         5.389032   9.202247   -1.270652 C.ar        1 UNL1     0.0342
     29 C         4.686822   8.06813   -0.810388 C.ar        1 UNL1     0.1435
     30 C         4.905419   6.786077   -1.316133 C.ar        1 UNL1     0.0774
     31 O         3.645996   8.182153   0.043243 O.3        1 UNL1     -0.4436
     32 C         2.923543   6.949809   -0.099102 C.3        1 UNL1     0.3143
     33 C         3.936167   5.956194   -0.631581 C.2        1 UNL1     0.2504
     34 C         4.943085   10.568531   -0.829631 C.3        1 UNL1     -0.0327
     35 O         2.562787   6.513048   1.217085 O.2        1 UNL1     -0.4528
     36 C         -0.681495   4.582946   0.820311 C.3        1 UNL1     0.0854
     37 C         -0.987682   3.322742   -0.077273 C.3        1 UNL1     0.0236
     38 C         -1.588923   2.061901   0.710467 C.3        1 UNL1     0.1131
     39 C         -0.86334   1.530243   2.011674 C.3        1 UNL1     0.0200
     40 C         0.797767   1.383665   2.052616 C.3        1 UNL1     0.0661
     41 C         1.756524   0.61449   0.883529 C.3        1 UNL1     0.0091
     42 C         3.464268   0.976113   0.319399 C.3        1 UNL1     0.0661
     43 C         7.501419   7.456563   -3.891843 C.2        1 UNL1     0.2131
     44 O         7.901771   8.354545   -4.610233 O.2        1 UNL1     -0.2851
     45 O         7.160669   9.96702   -2.689187 O.3        1 UNL1     -0.5056
     46 O         3.951429   4.752622   -0.501057 O.2        1 UNL1     -0.2836
     47 C         5.564567   1.31548   1.929179 C.3        1 UNL1     -0.0566
     48 O         3.91197   -0.435286   0.400839 O.3        1 UNL1     -0.3909
     49 C         0.922045   0.382672   -0.356391 C.3        1 UNL1     -0.0577
     50 O         1.398764   2.601075   2.445601 O.3        1 UNL1     -0.3910
     51 O         -0.805533   4.393062   2.21171 O.3        1 UNL1     -0.3753
     52 C         0.056535   3.161863   -1.229956 C.3        1 UNL1     -0.0564
     53 O         -2.192276   1.023475   -0.189512 O.3        1 UNL1     -0.4608
     54 C         -2.414962   -0.28655   0.145416 C.2        1 UNL1     0.3042
     55 O         -1.843351   -1.279599   -0.302862 O.2        1 UNL1     -0.2512
     56 C         -3.44399   -0.464646   1.225275 C.3        1 UNL1     0.0332
     57 C         -1.583801   2.199425   3.273143 C.3        1 UNL1     -0.0567
     58 C         1.848367   7.195785   -1.183087 C.3        1 UNL1     0.0210
     59 C         -1.148837   5.565763   2.948446 C.3        1 UNL1     0.0372
     60 C         0.647862   5.211254   0.58966 C.2        1 UNL1     -0.0208
     61 C         1.561173   5.645746   1.459042 C.2        1 UNL1     0.0882
     62 H         4.692999   2.72995   0.578637 H        1 UNL1     0.0365
     63 H         6.339808   3.604854   -0.253703 H        1 UNL1     0.0576
     64 H         8.344162   1.484994   -1.246441 H        1 UNL1     0.0615
     65 H         8.278788   4.60246   -1.43349 H        1 UNL1     0.0622
     66 H         -1.425721   5.329998   0.510331 H        1 UNL1     0.0645
     67 H         -1.853114   3.632766   -0.688396 H        1 UNL1     0.0362
     68 H         -2.535678   2.499294   1.06241 H        1 UNL1     0.0741
     69 H         -1.195465   0.519312   2.206915 H        1 UNL1     0.0359
     70 H         0.909244   0.72309   2.933679 H        1 UNL1     0.0600
     71 H         1.799527   -0.406787   1.310261 H        1 UNL1     0.0348
     72 H         3.358813   1.464189   1.299183 H        1 UNL1     0.0602
     73 H         0.765749   5.408636   -0.446868 H        1 UNL1     0.0628
     74 H         1.543632   5.434881   2.528839 H        1 UNL1     0.1022
     75 H         10.956895   2.24777   -3.432304 H        1 UNL1     0.0279
     76 H         10.799363   3.43618   -4.663631 H        1 UNL1     0.0279
     77 H         11.918386   3.657123   -3.258545 H        1 UNL1     0.0279
     78 H         9.068719   4.800266   -5.020917 H        1 UNL1     0.1553
     79 H         7.789242   3.329218   -4.667107 H        1 UNL1     0.1484
     80 H         4.039611   2.728542   -4.804764 H        1 UNL1     0.0317
     81 H         4.775173   4.255864   -5.269696 H        1 UNL1     0.0317
     82 H         6.686468   3.06538   -6.375771 H        1 UNL1     0.0428
     83 H         5.130275   2.590313   -7.019415 H        1 UNL1     0.0428
     84 H         6.907949   -0.047968   -4.194086 H        1 UNL1     0.0428
     85 H         7.818544   1.362532   -4.606914 H        1 UNL1     0.0428
     86 H         6.526424   1.435012   -2.473835 H        1 UNL1     0.0317
     87 H         5.030315   1.20882   -3.25668 H        1 UNL1     0.0317
     88 H         7.265054   0.878091   -7.379449 H        1 UNL1     0.0429
     89 H         6.900775   -0.609423   -6.501475 H        1 UNL1     0.0429
     90 H         4.360289   0.195334   -7.302151 H        1 UNL1     0.0308
     91 H         6.287881   1.046164   -9.541801 H        1 UNL1     0.0233
     92 H         4.518571   0.898098   -9.693832 H        1 UNL1     0.0233
     93 H         5.215394   2.127439   -8.660507 H        1 UNL1     0.0233
     94 H         4.655004   -1.475469   -9.166857 H        1 UNL1     0.0233
     95 H         6.355645   -1.591314   -8.688603 H        1 UNL1     0.0233
     96 H         5.076766   -2.050305   -7.540655 H        1 UNL1     0.0233
     97 H         4.149811   10.519102   -0.089697 H        1 UNL1     0.0280
     98 H         5.75625   11.13798   -0.36086 H        1 UNL1     0.0280
     99 H         4.569644   11.133463   -1.699395 H        1 UNL1     0.0280
     100 H         6.694056   10.71772   -3.012212 H        1 UNL1     0.2922
     101 H         4.701551   0.882279   2.434348 H        1 UNL1     0.0236
     102 H         6.015921   2.120435   2.508238 H        1 UNL1     0.0236
     103 H         6.320319   0.512342   1.927828 H        1 UNL1     0.0236
     104 H         4.33154   -0.5617   1.27431 H        1 UNL1     0.2098
     105 H         0.70988   1.281744   -0.929512 H        1 UNL1     0.0234
     106 H         1.290861   -0.405454   -1.012713 H        1 UNL1     0.0234
     107 H         0.0   -0.0   0.0 H        1 UNL1     0.0234
     108 H         1.200532   3.259581   1.752173 H        1 UNL1     0.2098
     109 H         1.081349   3.047682   -0.849916 H        1 UNL1     0.0234
     110 H         -0.176507   2.335035   -1.909507 H        1 UNL1     0.0234
     111 H         0.078188   4.044786   -1.882584 H        1 UNL1     0.0234
     112 H         -3.567401   -1.52843   1.449951 H        1 UNL1     0.0342
     113 H         -3.196258   0.098302   2.12392 H        1 UNL1     0.0342
     114 H         -4.404597   -0.086132   0.849608 H        1 UNL1     0.0342
     115 H         -2.653573   1.951803   3.311341 H        1 UNL1     0.0234
     116 H         -1.147391   1.919215   4.233912 H        1 UNL1     0.0234
     117 H         -1.621726   3.301314   3.224727 H        1 UNL1     0.0234
     118 H         0.947648   7.68317   -0.770573 H        1 UNL1     0.0309
     119 H         2.217989   7.783699   -2.02922 H        1 UNL1     0.0309
     120 H         1.459166   6.264146   -1.608147 H        1 UNL1     0.0309
     121 H         -0.344177   6.287849   2.812532 H        1 UNL1     0.0524
     122 H         -2.078757   6.032254   2.582836 H        1 UNL1     0.0524
     123 H         -1.26453   5.327343   4.001947 H        1 UNL1     0.0524
@<TRIPOS>BOND
     1     1     2    1
     2     1    42    1
     3     2     3    2
     4     3     4    1
     5     4     5    2
     6     5     7    1
     7     6    75    1
     8     6    76    1
     9     6    77    1
    10     7     9   am
    11     9    10    1
    12    10    11    2
    13    10    43    1
    14    11    14    1
    15    11    15    1
    16    12    13   ar
    17    12    27   ar
    18    12    43    1
    19    13    14    1
    20    13    30   ar
    21    14    17    2
    22    15    16    1
    23    16    17    1
    24    16    18    1
    25    16    22    1
    26    18    19    1
    27    19    20    1
    28    20    21    1
    29    21    22    1
    30    23    24    1
    31    23    88    1
    32    23    89    1
    33    24    25    1
    34    24    26    1
    35    24    90    1
    36    25    91    1
    37    25    92    1
    38    25    93    1
    39    26    94    1
    40    26    95    1
    41    26    96    1
    42    27    28   ar
    43    28    29   ar
    44    29    30   ar
    45    29    31    1
    46    30    33    1
    47    31    32    1
    48    32    33    1
    49    32    35    1
    50    34    97    1
    51    34    98    1
    52    34    99    1
    53    35    61    1
    54    36    37    1
    55    36    60    1
    56    37    38    1
    57    38    39    1
    58    39    40    1
    59    40    41    1
    60    41    42    1
    61    45   100    1
    62    47   101    1
    63    47   102    1
    64    47   103    1
    65    48   104    1
    66    49   105    1
    67    49   106    1
    68    49   107    1
    69    50   108    1
    70    51    59    1
    71    52   109    1
    72    52   110    1
    73    52   111    1
    74    53    54    1
    75    54    55    2
    76    54    56    1
    77    56   112    1
    78    56   113    1
    79    56   114    1
    80    57   115    1
    81    57   116    1
    82    57   117    1
    83    58   118    1
    84    58   119    1
    85    58   120    1
    86    59   121    1
    87    59   122    1
    88    59   123    1
    89    60    61    2
    90     1    47    1
    91     1    62    1
    92     2    63    1
    93     3    64    1
    94     4    65    1
    95     5     6    1
    96     7     8    2
    97     9    78    1
    98    15    79    1
    99    18    80    1
   100    18    81    1
   101    19    82    1
   102    19    83    1
   103    20    23    1
   104    21    84    1
   105    21    85    1
   106    22    86    1
   107    22    87    1
   108    27    45    1
   109    28    34    1
   110    32    58    1
   111    33    46    2
   112    36    51    1
   113    36    66    1
   114    37    52    1
   115    37    67    1
   116    38    53    1
   117    38    68    1
   118    42    48    1
   119    42    72    1
   120    43    44    2
   121    60    73    1
   122    61    74    1
   123    39    69    1
   124    39    57    1
   125    40    70    1
   126    40    50    1
   127    41    71    1
   128    41    49    1
