@<TRIPOS>MOLECULE
*****
 123 128 0 0 0
SMALL
GASTEIGER

@<TRIPOS>ATOM
     1 C         1.873174   -2.950673   -3.180451 C.3        1 UNL1     0.0009
     2 C         1.173295   -3.772058   -4.687943 C.2        1 UNL1     -0.0787
     3 C         0.777976   -4.971721   -5.395458 C.2        1 UNL1     -0.0649
     4 C         -0.004612   -5.086822   -6.892343 C.2        1 UNL1     -0.0542
     5 C         -0.778259   -5.920619   -7.736933 C.2        1 UNL1     0.0115
     6 C         -1.305412   -7.368829   -7.932176 C.3        1 UNL1     -0.0348
     7 C         -1.600682   -5.254725   -8.944077 C.2        1 UNL1     0.2441
     8 O         -1.225043   -5.295837   -10.107576 O.2        1 UNL1     -0.2702
     9 N         -2.905977   -4.849909   -8.614715 N.am        1 UNL1     -0.2772
     10 C         -2.900786   -3.564   -8.12509 C.2        1 UNL1     0.1049
     11 C         -2.606377   -3.429933   -6.844632 C.2        1 UNL1     0.0801
     12 C         -2.043475   -1.263084   -8.602728 C.ar        1 UNL1     0.0753
     13 C         -1.556033   -1.250248   -7.257051 C.ar        1 UNL1     0.0305
     14 C         -1.937789   -2.281728   -6.295094 C.2        1 UNL1     0.0924
     15 N         -2.512137   -4.359113   -5.878056 N.pl3        1 UNL1     -0.3170
     16 C         -2.33651   -3.673661   -4.625233 C.3        1 UNL1     0.1275
     17 N         -1.665453   -2.373836   -4.996527 N.2        1 UNL1     -0.2557
     18 C         -3.725352   -3.302413   -4.114359 C.3        1 UNL1     0.0016
     19 C         -4.56503   -4.56681   -4.025866 C.3        1 UNL1     0.0026
     20 N         -3.907835   -5.502599   -3.123966 N.3        1 UNL1     -0.3018
     21 C         -2.541587   -5.872482   -3.499358 C.3        1 UNL1     0.0026
     22 C         -1.714711   -4.587956   -3.577865 C.3        1 UNL1     0.0016
     23 C         -4.762509   -6.607216   -2.736673 C.3        1 UNL1     0.0012
     24 C         -6.075467   -6.577898   -3.534819 C.3        1 UNL1     -0.0339
     25 C         -6.010934   -7.507361   -4.757926 C.3        1 UNL1     -0.0615
     26 C         -7.243564   -6.926498   -2.628834 C.3        1 UNL1     -0.0615
     27 C         -1.77363   -0.213828   -9.478149 C.ar        1 UNL1     0.1347
     28 C         -1.06382   0.915762   -9.111753 C.ar        1 UNL1     0.0342
     29 C         -0.552287   0.884127   -7.79703 C.ar        1 UNL1     0.1435
     30 C         -0.78391   -0.176497   -6.920305 C.ar        1 UNL1     0.0774
     31 O         0.066017   1.956203   -7.255403 O.3        1 UNL1     -0.4436
     32 C         0.006991   1.731518   -5.83875 C.3        1 UNL1     0.3143
     33 C         -0.155495   0.233133   -5.681731 C.2        1 UNL1     0.2504
     34 C         -0.950521   2.183802   -9.91134 C.3        1 UNL1     -0.0327
     35 O         1.290637   2.070702   -5.299808 O.2        1 UNL1     -0.4528
     36 C         0.646184   3.283048   -1.761025 C.3        1 UNL1     0.0854
     37 C         -0.06395   2.537536   -0.566268 C.3        1 UNL1     0.0236
     38 C         0.804673   2.434362   0.777828 C.3        1 UNL1     0.1131
     39 C         2.287248   1.886441   0.714415 C.3        1 UNL1     0.0200
     40 C         2.653516   0.54494   -0.206814 C.3        1 UNL1     0.0661
     41 C         1.826446   -0.935858   -0.178499 C.3        1 UNL1     0.0091
     42 C         1.528565   -2.158246   -1.513578 C.3        1 UNL1     0.0661
     43 C         -2.921339   -2.38866   -9.008553 C.2        1 UNL1     0.2131
     44 O         -3.697435   -2.333035   -9.945205 O.2        1 UNL1     -0.2851
     45 O         -2.246294   -0.325515   -10.784117 O.3        1 UNL1     -0.5056
     46 O         0.178807   -0.467831   -4.75289 O.2        1 UNL1     -0.2836
     47 C         3.411177   -3.153141   -3.120989 C.3        1 UNL1     -0.0566
     48 O         1.929273   -3.325018   -0.69066 O.3        1 UNL1     -0.3909
     49 C         0.513569   -0.747712   0.548446 C.3        1 UNL1     -0.0577
     50 O         2.935776   0.915274   -1.54132 O.3        1 UNL1     -0.3910
     51 O         2.003583   3.608848   -1.564166 O.3        1 UNL1     -0.3753
     52 C         -0.963283   1.360568   -1.067161 C.3        1 UNL1     -0.0564
     53 O         0.000461   2.047332   1.984384 O.3        1 UNL1     -0.4608
     54 C         -0.944565   1.055783   2.025438 C.2        1 UNL1     0.3042
     55 O         -2.027668   1.031708   1.442217 O.2        1 UNL1     -0.2512
     56 C         -0.533084   -0.133589   2.845677 C.3        1 UNL1     0.0332
     57 C         3.264103   3.148908   0.61389 C.3        1 UNL1     -0.0567
     58 C         -1.280001   2.428   -5.338656 C.3        1 UNL1     0.0210
     59 C         2.442127   4.785112   -2.242361 C.3        1 UNL1     0.0372
     60 C         0.557114   2.591216   -3.075786 C.2        1 UNL1     -0.0208
     61 C         1.490902   2.372677   -4.002622 C.2        1 UNL1     0.0882
     62 H         1.703859   -1.977002   -3.655854 H        1 UNL1     0.0365
     63 H         1.047675   -2.911794   -5.348726 H        1 UNL1     0.0576
     64 H         0.811456   -5.954278   -4.919466 H        1 UNL1     0.0615
     65 H         0.087133   -4.081513   -7.312365 H        1 UNL1     0.0622
     66 H         0.083512   4.220308   -1.874995 H        1 UNL1     0.0645
     67 H         -0.865807   3.230204   -0.256757 H        1 UNL1     0.0362
     68 H         0.899067   3.504281   1.018421 H        1 UNL1     0.0741
     69 H         2.588317   1.581348   1.707735 H        1 UNL1     0.0359
     70 H         3.639643   0.282654   0.221929 H        1 UNL1     0.0600
     71 H         2.421595   -1.475101   0.584372 H        1 UNL1     0.0348
     72 H         2.37515   -1.542182   -1.84984 H        1 UNL1     0.0602
     73 H         -0.45899   2.36266   -3.282043 H        1 UNL1     0.0628
     74 H         2.559746   2.525062   -3.849035 H        1 UNL1     0.1022
     75 H         -1.242639   -7.941187   -6.975359 H        1 UNL1     0.0279
     76 H         -2.355128   -7.471291   -8.198005 H        1 UNL1     0.0279
     77 H         -0.660136   -7.971471   -8.588029 H        1 UNL1     0.0279
     78 H         -3.27754   -5.454154   -7.884711 H        1 UNL1     0.1553
     79 H         -2.916509   -5.275072   -5.944657 H        1 UNL1     0.1484
     80 H         -3.628343   -2.816739   -3.135851 H        1 UNL1     0.0317
     81 H         -4.205353   -2.575845   -4.778701 H        1 UNL1     0.0317
     82 H         -4.726625   -5.018338   -5.015775 H        1 UNL1     0.0428
     83 H         -5.551612   -4.279008   -3.661341 H        1 UNL1     0.0428
     84 H         -2.042864   -6.512394   -2.764784 H        1 UNL1     0.0428
     85 H         -2.517719   -6.461788   -4.426432 H        1 UNL1     0.0428
     86 H         -0.698828   -4.905924   -3.722318 H        1 UNL1     0.0317
     87 H         -1.690134   -4.097608   -2.597023 H        1 UNL1     0.0317
     88 H         -4.235641   -7.542981   -2.964818 H        1 UNL1     0.0429
     89 H         -4.95572   -6.602106   -1.656202 H        1 UNL1     0.0429
     90 H         -6.261371   -5.55496   -3.883028 H        1 UNL1     0.0308
     91 H         -5.198191   -7.221427   -5.432309 H        1 UNL1     0.0233
     92 H         -5.870812   -8.545387   -4.44732 H        1 UNL1     0.0233
     93 H         -6.935566   -7.486719   -5.347387 H        1 UNL1     0.0233
     94 H         -6.994045   -6.699661   -1.586663 H        1 UNL1     0.0233
     95 H         -8.119435   -6.331771   -2.902901 H        1 UNL1     0.0233
     96 H         -7.500809   -7.987056   -2.699613 H        1 UNL1     0.0233
     97 H         -1.699645   2.915347   -9.623438 H        1 UNL1     0.0280
     98 H         0.020389   2.676499   -9.770487 H        1 UNL1     0.0280
     99 H         -1.081849   1.957807   -10.982215 H        1 UNL1     0.0280
     100 H         -1.832593   -0.999747   -11.293907 H        1 UNL1     0.2922
     101 H         3.888625   -2.578331   -3.914269 H        1 UNL1     0.0236
     102 H         3.70659   -4.201621   -3.141059 H        1 UNL1     0.0236
     103 H         3.845308   -2.756679   -2.187961 H        1 UNL1     0.0236
     104 H         1.934789   -3.03897   0.243747 H        1 UNL1     0.2098
     105 H         -0.116469   -1.633264   0.57417 H        1 UNL1     0.0234
     106 H         0.603012   -0.318606   1.54634 H        1 UNL1     0.0234
     107 H         0.0   0.0   0.0 H        1 UNL1     0.0234
     108 H         3.672735   0.352996   -1.848733 H        1 UNL1     0.2098
     109 H         -1.942149   1.343429   -0.567922 H        1 UNL1     0.0234
     110 H         -1.105792   1.359855   -2.153179 H        1 UNL1     0.0234
     111 H         -0.505847   0.384363   -0.858063 H        1 UNL1     0.0234
     112 H         -1.408052   -0.563838   3.34233 H        1 UNL1     0.0342
     113 H         -0.014599   -0.882793   2.249263 H        1 UNL1     0.0342
     114 H         0.161097   0.210478   3.624711 H        1 UNL1     0.0342
     115 H         2.782004   3.999425   0.112502 H        1 UNL1     0.0234
     116 H         3.633119   3.502629   1.578648 H        1 UNL1     0.0234
     117 H         4.134916   2.980149   -0.042728 H        1 UNL1     0.0234
     118 H         -1.732831   1.897336   -4.482884 H        1 UNL1     0.0309
     119 H         -1.123241   3.476832   -5.067397 H        1 UNL1     0.0309
     120 H         -2.078304   2.424871   -6.088862 H        1 UNL1     0.0309
     121 H         3.176315   4.481367   -2.988057 H        1 UNL1     0.0524
     122 H         1.61992   5.292847   -2.773603 H        1 UNL1     0.0524
     123 H         2.889219   5.480601   -1.537734 H        1 UNL1     0.0524
@<TRIPOS>BOND
     1     1     2    1
     2     1    42    1
     3     2     3    2
     4     3     4    1
     5     4     5    2
     6     5     7    1
     7     6    75    1
     8     6    76    1
     9     6    77    1
    10     7     9   am
    11     9    10    1
    12    10    11    2
    13    10    43    1
    14    11    14    1
    15    11    15    1
    16    12    13   ar
    17    12    27   ar
    18    12    43    1
    19    13    14    1
    20    13    30   ar
    21    14    17    2
    22    15    16    1
    23    16    17    1
    24    16    18    1
    25    16    22    1
    26    18    19    1
    27    19    20    1
    28    20    21    1
    29    21    22    1
    30    23    24    1
    31    23    88    1
    32    23    89    1
    33    24    25    1
    34    24    26    1
    35    24    90    1
    36    25    91    1
    37    25    92    1
    38    25    93    1
    39    26    94    1
    40    26    95    1
    41    26    96    1
    42    27    28   ar
    43    28    29   ar
    44    29    30   ar
    45    29    31    1
    46    30    33    1
    47    31    32    1
    48    32    33    1
    49    32    35    1
    50    34    97    1
    51    34    98    1
    52    34    99    1
    53    35    61    1
    54    36    37    1
    55    36    60    1
    56    37    38    1
    57    38    39    1
    58    39    40    1
    59    40    41    1
    60    41    42    1
    61    45   100    1
    62    47   101    1
    63    47   102    1
    64    47   103    1
    65    48   104    1
    66    49   105    1
    67    49   106    1
    68    49   107    1
    69    50   108    1
    70    51    59    1
    71    52   109    1
    72    52   110    1
    73    52   111    1
    74    53    54    1
    75    54    55    2
    76    54    56    1
    77    56   112    1
    78    56   113    1
    79    56   114    1
    80    57   115    1
    81    57   116    1
    82    57   117    1
    83    58   118    1
    84    58   119    1
    85    58   120    1
    86    59   121    1
    87    59   122    1
    88    59   123    1
    89    60    61    2
    90     1    47    1
    91     1    62    1
    92     2    63    1
    93     3    64    1
    94     4    65    1
    95     5     6    1
    96     7     8    2
    97     9    78    1
    98    15    79    1
    99    18    80    1
   100    18    81    1
   101    19    82    1
   102    19    83    1
   103    20    23    1
   104    21    84    1
   105    21    85    1
   106    22    86    1
   107    22    87    1
   108    27    45    1
   109    28    34    1
   110    32    58    1
   111    33    46    2
   112    36    51    1
   113    36    66    1
   114    37    52    1
   115    37    67    1
   116    38    53    1
   117    38    68    1
   118    42    48    1
   119    42    72    1
   120    43    44    2
   121    60    73    1
   122    61    74    1
   123    39    69    1
   124    39    57    1
   125    40    70    1
   126    40    50    1
   127    41    71    1
   128    41    49    1
