@<TRIPOS>MOLECULE
*****
 123 128 0 0 0
SMALL
GASTEIGER

@<TRIPOS>ATOM
     1 C         3.599148   -2.275544   -2.368628 C.3        1 UNL1     0.0009
     2 C         4.463969   -1.997089   -3.984668 C.2        1 UNL1     -0.0787
     3 C         4.793746   -2.435093   -5.32461 C.2        1 UNL1     -0.0649
     4 C         5.641105   -1.584648   -6.518379 C.2        1 UNL1     -0.0542
     5 C         5.904901   -1.484988   -7.906744 C.2        1 UNL1     0.0115
     6 C         5.718647   -2.195873   -9.275421 C.3        1 UNL1     -0.0348
     7 C         6.524868   -0.121295   -8.483781 C.2        1 UNL1     0.2441
     8 O         7.70698   0.002015   -8.773489 O.2        1 UNL1     -0.2702
     9 N         5.574966   0.836476   -8.879395 N.am        1 UNL1     -0.2772
     10 C         5.227408   1.636234   -7.815011 C.2        1 UNL1     0.1049
     11 C         4.305742   1.154039   -7.001228 C.2        1 UNL1     0.0801
     12 C         6.200934   3.006769   -5.962658 C.ar        1 UNL1     0.0753
     13 C         5.320205   2.300604   -5.082741 C.ar        1 UNL1     0.0305
     14 C         4.25188   1.444922   -5.594152 C.2        1 UNL1     0.0924
     15 N         3.490696   0.095635   -7.149578 N.pl3        1 UNL1     -0.3170
     16 C         2.557101   0.103116   -6.054773 C.3        1 UNL1     0.1275
     17 N         3.29188   0.80098   -4.936378 N.2        1 UNL1     -0.2557
     18 C         1.407573   1.026357   -6.44709 C.3        1 UNL1     0.0016
     19 C         0.824741   0.54395   -7.76587 C.3        1 UNL1     0.0026
     20 N         0.362256   -0.826956   -7.599279 N.3        1 UNL1     -0.3018
     21 C         1.385162   -1.779442   -7.162472 C.3        1 UNL1     0.0026
     22 C         1.953764   -1.277747   -5.833981 C.3        1 UNL1     0.0016
     23 C         -0.473548   -1.277168   -8.694443 C.3        1 UNL1     0.0012
     24 C         0.388872   -1.852214   -9.82904 C.3        1 UNL1     -0.0339
     25 C         -0.138614   -1.424491   -11.208485 C.3        1 UNL1     -0.0615
     26 C         1.840251   -1.448559   -9.635804 C.3        1 UNL1     -0.0615
     27 C         7.137605   3.913238   -5.471658 C.ar        1 UNL1     0.1347
     28 C         7.259725   4.224911   -4.129273 C.ar        1 UNL1     0.0342
     29 C         6.415739   3.481428   -3.277166 C.ar        1 UNL1     0.1435
     30 C         5.497638   2.543766   -3.751612 C.ar        1 UNL1     0.0774
     31 O         6.338141   3.747351   -1.954945 O.3        1 UNL1     -0.4436
     32 C         5.096037   3.159839   -1.539153 C.3        1 UNL1     0.3143
     33 C         4.802098   2.085888   -2.566986 C.2        1 UNL1     0.2504
     34 C         8.060217   5.361655   -3.557326 C.3        1 UNL1     -0.0327
     35 O         5.336408   2.491589   -0.294598 O.2        1 UNL1     -0.4528
     36 C         2.05914   2.637626   1.614924 C.3        1 UNL1     0.0854
     37 C         0.634085   2.112245   1.189819 C.3        1 UNL1     0.0236
     38 C         -0.049247   1.097699   2.226882 C.3        1 UNL1     0.1131
     39 C         0.762179   -0.155544   2.749605 C.3        1 UNL1     0.0200
     40 C         1.669148   -1.075035   1.693962 C.3        1 UNL1     0.0661
     41 C         1.13313   -1.707017   0.213795 C.3        1 UNL1     0.0091
     42 C         2.044786   -2.017585   -1.347561 C.3        1 UNL1     0.0661
     43 C         6.023407   2.808743   -7.422634 C.2        1 UNL1     0.2131
     44 O         6.40834   3.603197   -8.261328 O.2        1 UNL1     -0.2851
     45 O         7.987594   4.524273   -6.39122 O.3        1 UNL1     -0.5056
     46 O         4.157548   1.069919   -2.432021 O.2        1 UNL1     -0.2836
     47 C         4.353151   -3.34267   -1.530355 C.3        1 UNL1     -0.0566
     48 O         1.501804   -3.385988   -1.525775 O.3        1 UNL1     -0.3909
     49 C         -0.168292   -1.034023   -0.161537 C.3        1 UNL1     -0.0577
     50 O         2.967191   -0.535341   1.547204 O.3        1 UNL1     -0.3910
     51 O         2.627572   2.026059   2.75084 O.3        1 UNL1     -0.3753
     52 C         0.523121   1.918864   -0.357837 C.3        1 UNL1     -0.0564
     53 O         -1.516188   0.890964   1.986736 O.3        1 UNL1     -0.4608
     54 C         -2.186952   -0.294695   2.135791 C.2        1 UNL1     0.3042
     55 O         -3.109393   -0.538398   2.912677 O.2        1 UNL1     -0.2512
     56 C         -1.739793   -1.363035   1.17902 C.3        1 UNL1     0.0332
     57 C         1.427747   0.249281   4.146498 C.3        1 UNL1     -0.0567
     58 C         4.025839   4.269887   -1.657468 C.3        1 UNL1     0.0210
     59 C         2.662295   2.845384   3.918472 C.3        1 UNL1     0.0372
     60 C         3.090703   2.594764   0.542916 C.2        1 UNL1     -0.0208
     61 C         4.359117   2.184257   0.579722 C.2        1 UNL1     0.0882
     62 H         3.960741   -1.29764   -2.028533 H        1 UNL1     0.0365
     63 H         5.000009   -1.069872   -3.771597 H        1 UNL1     0.0576
     64 H         4.359276   -3.340601   -5.754027 H        1 UNL1     0.0615
     65 H         6.095633   -0.753133   -5.97297 H        1 UNL1     0.0622
     66 H         1.904544   3.701865   1.841951 H        1 UNL1     0.0645
     67 H         -0.018008   2.99763   1.286925 H        1 UNL1     0.0362
     68 H         -0.149488   1.764073   3.09718 H        1 UNL1     0.0741
     69 H         0.065225   -0.877336   3.154179 H        1 UNL1     0.0359
     70 H         1.815199   -1.983368   2.309316 H        1 UNL1     0.0600
     71 H         0.775345   -2.701186   0.546321 H        1 UNL1     0.0348
     72 H         2.808664   -1.943665   -0.559943 H        1 UNL1     0.0602
     73 H         2.715832   3.082886   -0.322218 H        1 UNL1     0.0628
     74 H         4.802709   1.625413   1.404438 H        1 UNL1     0.1022
     75 H         6.533907   -2.939974   -9.444831 H        1 UNL1     0.0279
     76 H         4.821922   -2.800733   -9.38987 H        1 UNL1     0.0279
     77 H         5.862673   -1.518227   -10.129676 H        1 UNL1     0.0279
     78 H         4.72982   0.368102   -9.199445 H        1 UNL1     0.1553
     79 H         3.287146   -0.330839   -8.034801 H        1 UNL1     0.1484
     80 H         0.654642   1.018532   -5.649719 H        1 UNL1     0.0317
     81 H         1.752271   2.061597   -6.542552 H        1 UNL1     0.0317
     82 H         1.554833   0.618581   -8.585204 H        1 UNL1     0.0428
     83 H         0.007994   1.21724   -8.02789 H        1 UNL1     0.0428
     84 H         0.995239   -2.783442   -6.96816 H        1 UNL1     0.0428
     85 H         2.15337   -1.935953   -7.932327 H        1 UNL1     0.0428
     86 H         2.598166   -2.061205   -5.480528 H        1 UNL1     0.0317
     87 H         1.160732   -1.24059   -5.077135 H        1 UNL1     0.0317
     88 H         -1.130971   -2.071783   -8.318043 H        1 UNL1     0.0429
     89 H         -1.121352   -0.469862   -9.059657 H        1 UNL1     0.0429
     90 H         0.372497   -2.947117   -9.773071 H        1 UNL1     0.0308
     91 H         -1.106571   -1.886375   -11.424877 H        1 UNL1     0.0233
     92 H         -0.239334   -0.338019   -11.263657 H        1 UNL1     0.0233
     93 H         0.539253   -1.710444   -12.02185 H        1 UNL1     0.0233
     94 H         1.962916   -0.925401   -8.681291 H        1 UNL1     0.0233
     95 H         2.476117   -2.338096   -9.616837 H        1 UNL1     0.0233
     96 H         2.18098   -0.788137   -10.438123 H        1 UNL1     0.0233
     97 H         9.129193   5.192327   -3.645925 H        1 UNL1     0.0280
     98 H         7.862071   6.309113   -4.075319 H        1 UNL1     0.0280
     99 H         7.817018   5.483511   -2.489103 H        1 UNL1     0.0280
     100 H         7.650378   5.317424   -6.769135 H        1 UNL1     0.2922
     101 H         4.068931   -3.25479   -0.481951 H        1 UNL1     0.0236
     102 H         5.433709   -3.308828   -1.665388 H        1 UNL1     0.0236
     103 H         4.066672   -4.369469   -1.812857 H        1 UNL1     0.0236
     104 H         2.052026   -3.836681   -2.195925 H        1 UNL1     0.2098
     105 H         -0.458447   -1.165498   -1.200929 H        1 UNL1     0.0234
     106 H         -1.006155   -1.26388   0.496549 H        1 UNL1     0.0234
     107 H         0.0   0.0   0.0 H        1 UNL1     0.0234
     108 H         3.126743   0.048973   2.31329 H        1 UNL1     0.2098
     109 H         0.679434   2.858047   -0.906666 H        1 UNL1     0.0234
     110 H         1.201152   1.150832   -0.745322 H        1 UNL1     0.0234
     111 H         -0.474502   1.565737   -0.651088 H        1 UNL1     0.0234
     112 H         -0.647693   -1.368257   1.11093 H        1 UNL1     0.0342
     113 H         -2.118686   -2.345638   1.4561 H        1 UNL1     0.0342
     114 H         -2.138104   -1.121117   0.184038 H        1 UNL1     0.0342
     115 H         1.834471   -0.624737   4.673619 H        1 UNL1     0.0234
     116 H         2.231238   0.983336   4.059241 H        1 UNL1     0.0234
     117 H         0.701396   0.625839   4.887147 H        1 UNL1     0.0234
     118 H         4.42229   5.260095   -1.372298 H        1 UNL1     0.0309
     119 H         3.583433   4.335407   -2.656561 H        1 UNL1     0.0309
     120 H         3.189935   4.123443   -0.964702 H        1 UNL1     0.0309
     121 H         1.81913   2.559765   4.546845 H        1 UNL1     0.0524
     122 H         3.581848   2.69462   4.508158 H        1 UNL1     0.0524
     123 H         2.587203   3.893848   3.644285 H        1 UNL1     0.0524
@<TRIPOS>BOND
     1     1     2    1
     2     1    42    1
     3     2     3    2
     4     3     4    1
     5     4     5    2
     6     5     7    1
     7     6    75    1
     8     6    76    1
     9     6    77    1
    10     7     9   am
    11     9    10    1
    12    10    11    2
    13    10    43    1
    14    11    14    1
    15    11    15    1
    16    12    13   ar
    17    12    27   ar
    18    12    43    1
    19    13    14    1
    20    13    30   ar
    21    14    17    2
    22    15    16    1
    23    16    17    1
    24    16    18    1
    25    16    22    1
    26    18    19    1
    27    19    20    1
    28    20    21    1
    29    21    22    1
    30    23    24    1
    31    23    88    1
    32    23    89    1
    33    24    25    1
    34    24    26    1
    35    24    90    1
    36    25    91    1
    37    25    92    1
    38    25    93    1
    39    26    94    1
    40    26    95    1
    41    26    96    1
    42    27    28   ar
    43    28    29   ar
    44    29    30   ar
    45    29    31    1
    46    30    33    1
    47    31    32    1
    48    32    33    1
    49    32    35    1
    50    34    97    1
    51    34    98    1
    52    34    99    1
    53    35    61    1
    54    36    37    1
    55    36    60    1
    56    37    38    1
    57    38    39    1
    58    39    40    1
    59    40    41    1
    60    41    42    1
    61    45   100    1
    62    47   101    1
    63    47   102    1
    64    47   103    1
    65    48   104    1
    66    49   105    1
    67    49   106    1
    68    49   107    1
    69    50   108    1
    70    51    59    1
    71    52   109    1
    72    52   110    1
    73    52   111    1
    74    53    54    1
    75    54    55    2
    76    54    56    1
    77    56   112    1
    78    56   113    1
    79    56   114    1
    80    57   115    1
    81    57   116    1
    82    57   117    1
    83    58   118    1
    84    58   119    1
    85    58   120    1
    86    59   121    1
    87    59   122    1
    88    59   123    1
    89    60    61    2
    90     1    47    1
    91     1    62    1
    92     2    63    1
    93     3    64    1
    94     4    65    1
    95     5     6    1
    96     7     8    2
    97     9    78    1
    98    15    79    1
    99    18    80    1
   100    18    81    1
   101    19    82    1
   102    19    83    1
   103    20    23    1
   104    21    84    1
   105    21    85    1
   106    22    86    1
   107    22    87    1
   108    27    45    1
   109    28    34    1
   110    32    58    1
   111    33    46    2
   112    36    51    1
   113    36    66    1
   114    37    52    1
   115    37    67    1
   116    38    53    1
   117    38    68    1
   118    42    48    1
   119    42    72    1
   120    43    44    2
   121    60    73    1
   122    61    74    1
   123    39    69    1
   124    39    57    1
   125    40    70    1
   126    40    50    1
   127    41    71    1
   128    41    49    1
