@<TRIPOS>MOLECULE
*****
 123 128 0 0 0
SMALL
GASTEIGER

@<TRIPOS>ATOM
     1 C         5.055168   1.983581   0.7228 C.3        1 UNL1     0.0009
     2 C         6.468691   2.900219   -0.050999 C.2        1 UNL1     -0.0787
     3 C         7.775392   2.899375   -0.67436 C.2        1 UNL1     -0.0649
     4 C         8.602356   4.208266   -1.359409 C.2        1 UNL1     -0.0542
     5 C         9.63359   4.591283   -2.252119 C.2        1 UNL1     0.0115
     6 C         10.824879   4.062144   -3.097202 C.3        1 UNL1     -0.0348
     7 C         9.660597   6.097136   -2.807697 C.2        1 UNL1     0.2441
     8 O         10.421314   6.952244   -2.375695 O.2        1 UNL1     -0.2702
     9 N         8.938416   6.299279   -3.996706 N.am        1 UNL1     -0.2772
     10 C         7.625349   6.599754   -3.71583 C.2        1 UNL1     0.1049
     11 C         6.829597   5.571419   -3.48447 C.2        1 UNL1     0.0801
     12 C         6.187998   8.079619   -2.301137 C.ar        1 UNL1     0.0753
     13 C         5.482941   6.89496   -1.916319 C.ar        1 UNL1     0.0305
     14 C         5.698447   5.620745   -2.598218 C.2        1 UNL1     0.0924
     15 N         7.036126   4.257954   -3.681149 N.pl3        1 UNL1     -0.3170
     16 C         5.794434   3.575549   -3.430593 C.3        1 UNL1     0.1275
     17 N         5.070448   4.458556   -2.443747 N.2        1 UNL1     -0.2557
     18 C         4.981716   3.627275   -4.720754 C.3        1 UNL1     0.0016
     19 C         5.812705   3.026704   -5.843412 C.3        1 UNL1     0.0026
     20 N         6.151364   1.654495   -5.492153 N.3        1 UNL1     -0.3018
     21 C         6.881619   1.497276   -4.232638 C.3        1 UNL1     0.0026
     22 C         6.02669   2.103127   -3.118216 C.3        1 UNL1     0.0016
     23 C         6.680118   0.900055   -6.611029 C.3        1 UNL1     0.0012
     24 C         5.574545   0.616823   -7.640225 C.3        1 UNL1     -0.0339
     25 C         5.950147   1.153709   -9.031172 C.3        1 UNL1     -0.0615
     26 C         5.26778   -0.870175   -7.679107 C.3        1 UNL1     -0.0615
     27 C         5.890712   9.314357   -1.729157 C.ar        1 UNL1     0.1347
     28 C         4.886203   9.495095   -0.795162 C.ar        1 UNL1     0.0342
     29 C         4.238471   8.306833   -0.395612 C.ar        1 UNL1     0.1435
     30 C         4.55023   7.057506   -0.933393 C.ar        1 UNL1     0.0774
     31 O         3.164997   8.330751   0.424198 O.3        1 UNL1     -0.4436
     32 C         2.522908   7.063438   0.218013 C.3        1 UNL1     0.3143
     33 C         3.610403   6.149552   -0.309604 C.2        1 UNL1     0.2504
     34 C         4.344717   10.817232   -0.327352 C.3        1 UNL1     -0.0327
     35 O         2.14565   6.562436   1.506393 O.2        1 UNL1     -0.4528
     36 C         -0.962045   4.458922   0.935823 C.3        1 UNL1     0.0854
     37 C         -1.162179   3.213578   -0.011059 C.3        1 UNL1     0.0236
     38 C         -1.712414   1.893885   0.715162 C.3        1 UNL1     0.1131
     39 C         -0.999697   1.362696   2.023651 C.3        1 UNL1     0.0200
     40 C         0.664945   1.312934   2.118129 C.3        1 UNL1     0.0661
     41 C         1.706301   0.641079   0.959768 C.3        1 UNL1     0.0091
     42 C         3.406999   1.121323   0.467434 C.3        1 UNL1     0.0661
     43 C         7.185137   7.965465   -3.394271 C.2        1 UNL1     0.2131
     44 O         7.554436   8.908981   -4.069649 O.2        1 UNL1     -0.2851
     45 O         6.654729   10.409886   -2.126061 O.3        1 UNL1     -0.5056
     46 O         3.693537   4.945281   -0.216479 O.2        1 UNL1     -0.2836
     47 C         5.428715   1.529822   2.159653 C.3        1 UNL1     -0.0566
     48 O         3.935653   -0.263185   0.520151 O.3        1 UNL1     -0.3909
     49 C         0.928733   0.402082   -0.315286 C.3        1 UNL1     -0.0577
     50 O         1.178465   2.549815   2.569953 O.3        1 UNL1     -0.3910
     51 O         -1.120448   4.215659   2.315375 O.3        1 UNL1     -0.3753
     52 C         -0.072612   3.153107   -1.130942 C.3        1 UNL1     -0.0564
     53 O         -2.222245   0.852384   -0.237558 O.3        1 UNL1     -0.4608
     54 C         -2.357692   -0.482405   0.041586 C.2        1 UNL1     0.3042
     55 O         -1.615975   -1.398324   -0.311667 O.2        1 UNL1     -0.2512
     56 C         -3.529879   -0.795648   0.927345 C.3        1 UNL1     0.0332
     57 C         -1.800374   1.945737   3.2795 C.3        1 UNL1     -0.0567
     58 C         1.471376   7.281749   -0.894709 C.3        1 UNL1     0.0210
     59 C         -1.52735   5.348853   3.080992 C.3        1 UNL1     0.0372
     60 C         0.334114   5.171804   0.771718 C.2        1 UNL1     -0.0208
     61 C         1.19043   5.630038   1.685769 C.2        1 UNL1     0.0882
     62 H         4.519011   2.934846   0.824489 H        1 UNL1     0.0365
     63 H         6.136992   3.932569   0.078222 H        1 UNL1     0.0576
     64 H         8.296705   1.968826   -0.909769 H        1 UNL1     0.0615
     65 H         8.050593   5.081536   -1.001022 H        1 UNL1     0.0622
     66 H         -1.739094   5.170781   0.623574 H        1 UNL1     0.0645
     67 H         -2.023955   3.492338   -0.642085 H        1 UNL1     0.0362
     68 H         -2.69484   2.26274   1.047287 H        1 UNL1     0.0741
     69 H         -1.276836   0.327996   2.175303 H        1 UNL1     0.0359
     70 H         0.786641   0.630992   2.981382 H        1 UNL1     0.0600
     71 H         1.796367   -0.389584   1.35547 H        1 UNL1     0.0348
     72 H         3.240074   1.569317   1.457764 H        1 UNL1     0.0602
     73 H         0.474185   5.410323   -0.253337 H        1 UNL1     0.0628
     74 H         1.150178   5.382865   2.747147 H        1 UNL1     0.1022
     75 H         10.881253   2.948281   -3.040931 H        1 UNL1     0.0279
     76 H         10.776306   4.240392   -4.169087 H        1 UNL1     0.0279
     77 H         11.801839   4.349917   -2.681948 H        1 UNL1     0.0279
     78 H         8.945529   5.445329   -4.550598 H        1 UNL1     0.1553
     79 H         7.745629   3.890465   -4.288183 H        1 UNL1     0.1484
     80 H         4.045417   3.074895   -4.575884 H        1 UNL1     0.0317
     81 H         4.702981   4.657579   -4.966584 H        1 UNL1     0.0317
     82 H         6.717833   3.619386   -6.041865 H        1 UNL1     0.0428
     83 H         5.21511   3.075256   -6.754221 H        1 UNL1     0.0428
     84 H         7.053421   0.453309   -3.952587 H        1 UNL1     0.0428
     85 H         7.890893   1.928009   -4.288778 H        1 UNL1     0.0428
     86 H         6.526864   1.85291   -2.201044 H        1 UNL1     0.0317
     87 H         5.073755   1.565276   -3.042527 H        1 UNL1     0.0317
     88 H         7.459538   1.50475   -7.092841 H        1 UNL1     0.0429
     89 H         7.156325   -0.030154   -6.275302 H        1 UNL1     0.0429
     90 H         4.64811   1.105391   -7.315829 H        1 UNL1     0.0308
     91 H         6.977676   0.887187   -9.296226 H        1 UNL1     0.0233
     92 H         5.270639   0.763264   -9.792376 H        1 UNL1     0.0233
     93 H         5.879712   2.246601   -9.089992 H        1 UNL1     0.0233
     94 H         4.707743   -1.116664   -8.587643 H        1 UNL1     0.0233
     95 H         6.198919   -1.443584   -7.69107 H        1 UNL1     0.0233
     96 H         4.674731   -1.178049   -6.813384 H        1 UNL1     0.0233
     97 H         3.479313   10.697876   0.317677 H        1 UNL1     0.0280
     98 H         5.081172   11.381852   0.259244 H        1 UNL1     0.0280
     99 H         4.045448   11.422572   -1.198614 H        1 UNL1     0.0280
     100 H         6.15416   11.168302   -2.37072 H        1 UNL1     0.2922
     101 H         4.546579   1.13139   2.660396 H        1 UNL1     0.0236
     102 H         5.912456   2.311838   2.743973 H        1 UNL1     0.0236
     103 H         6.149453   0.695126   2.15612 H        1 UNL1     0.0236
     104 H         4.245467   -0.42607   1.43254 H        1 UNL1     0.2098
     105 H         0.723756   1.30086   -0.891475 H        1 UNL1     0.0234
     106 H         1.339347   -0.374674   -0.960246 H        1 UNL1     0.0234
     107 H         0.0   -0.0   0.0 H        1 UNL1     0.0234
     108 H         1.019975   3.205193   1.863462 H        1 UNL1     0.2098
     109 H         0.944789   3.099314   -0.718981 H        1 UNL1     0.0234
     110 H         -0.22613   2.329719   -1.83678 H        1 UNL1     0.0234
     111 H         -0.090615   4.051607   -1.762068 H        1 UNL1     0.0234
     112 H         -3.568198   -1.870715   1.127618 H        1 UNL1     0.0342
     113 H         -3.50589   -0.225997   1.85512 H        1 UNL1     0.0342
     114 H         -4.448406   -0.520013   0.391157 H        1 UNL1     0.0342
     115 H         -2.876404   1.734155   3.211831 H        1 UNL1     0.0234
     116 H         -1.451417   1.56815   4.242675 H        1 UNL1     0.0234
     117 H         -1.802546   3.048338   3.326487 H        1 UNL1     0.0234
     118 H         0.442861   7.306818   -0.494041 H        1 UNL1     0.0309
     119 H         1.649162   8.18824   -1.481965 H        1 UNL1     0.0309
     120 H         1.442326   6.455594   -1.613549 H        1 UNL1     0.0309
     121 H         -1.180898   5.197873   4.103015 H        1 UNL1     0.0524
     122 H         -1.077329   6.285896   2.712931 H        1 UNL1     0.0524
     123 H         -2.609144   5.446178   3.062446 H        1 UNL1     0.0524
@<TRIPOS>BOND
     1     1     2    1
     2     1    42    1
     3     2     3    2
     4     3     4    1
     5     4     5    2
     6     5     7    1
     7     6    75    1
     8     6    76    1
     9     6    77    1
    10     7     9   am
    11     9    10    1
    12    10    11    2
    13    10    43    1
    14    11    14    1
    15    11    15    1
    16    12    13   ar
    17    12    27   ar
    18    12    43    1
    19    13    14    1
    20    13    30   ar
    21    14    17    2
    22    15    16    1
    23    16    17    1
    24    16    18    1
    25    16    22    1
    26    18    19    1
    27    19    20    1
    28    20    21    1
    29    21    22    1
    30    23    24    1
    31    23    88    1
    32    23    89    1
    33    24    25    1
    34    24    26    1
    35    24    90    1
    36    25    91    1
    37    25    92    1
    38    25    93    1
    39    26    94    1
    40    26    95    1
    41    26    96    1
    42    27    28   ar
    43    28    29   ar
    44    29    30   ar
    45    29    31    1
    46    30    33    1
    47    31    32    1
    48    32    33    1
    49    32    35    1
    50    34    97    1
    51    34    98    1
    52    34    99    1
    53    35    61    1
    54    36    37    1
    55    36    60    1
    56    37    38    1
    57    38    39    1
    58    39    40    1
    59    40    41    1
    60    41    42    1
    61    45   100    1
    62    47   101    1
    63    47   102    1
    64    47   103    1
    65    48   104    1
    66    49   105    1
    67    49   106    1
    68    49   107    1
    69    50   108    1
    70    51    59    1
    71    52   109    1
    72    52   110    1
    73    52   111    1
    74    53    54    1
    75    54    55    2
    76    54    56    1
    77    56   112    1
    78    56   113    1
    79    56   114    1
    80    57   115    1
    81    57   116    1
    82    57   117    1
    83    58   118    1
    84    58   119    1
    85    58   120    1
    86    59   121    1
    87    59   122    1
    88    59   123    1
    89    60    61    2
    90     1    47    1
    91     1    62    1
    92     2    63    1
    93     3    64    1
    94     4    65    1
    95     5     6    1
    96     7     8    2
    97     9    78    1
    98    15    79    1
    99    18    80    1
   100    18    81    1
   101    19    82    1
   102    19    83    1
   103    20    23    1
   104    21    84    1
   105    21    85    1
   106    22    86    1
   107    22    87    1
   108    27    45    1
   109    28    34    1
   110    32    58    1
   111    33    46    2
   112    36    51    1
   113    36    66    1
   114    37    52    1
   115    37    67    1
   116    38    53    1
   117    38    68    1
   118    42    48    1
   119    42    72    1
   120    43    44    2
   121    60    73    1
   122    61    74    1
   123    39    69    1
   124    39    57    1
   125    40    70    1
   126    40    50    1
   127    41    71    1
   128    41    49    1
