@<TRIPOS>MOLECULE
*****
 123 128 0 0 0
SMALL
GASTEIGER

@<TRIPOS>ATOM
     1 C         0.219311   1.001676   3.997107 C.3        1 UNL1     0.0009
     2 C         -0.7801   0.31373   5.398871 C.2        1 UNL1     -0.0787
     3 C         -1.920262   0.395547   6.287344 C.2        1 UNL1     -0.0649
     4 C         -2.427118   -0.739207   7.437034 C.2        1 UNL1     -0.0542
     5 C         -3.517149   -1.189   8.222271 C.2        1 UNL1     0.0115
     6 C         -4.959263   -0.843717   8.685315 C.3        1 UNL1     -0.0348
     7 C         -3.46106   -2.661995   8.857981 C.2        1 UNL1     0.2441
     8 O         -3.194729   -2.869597   10.033777 O.2        1 UNL1     -0.2702
     9 N         -3.991894   -3.676216   8.042064 N.am        1 UNL1     -0.2772
     10 C         -3.020842   -4.177304   7.205828 C.2        1 UNL1     0.1049
     11 C         -2.797212   -3.493699   6.098174 C.2        1 UNL1     0.0801
     12 C         -0.676295   -5.049126   7.186912 C.ar        1 UNL1     0.0753
     13 C         -0.427455   -4.13266   6.116035 C.ar        1 UNL1     0.0305
     14 C         -1.515596   -3.419798   5.450582 C.2        1 UNL1     0.0924
     15 N         -3.505217   -2.496433   5.540754 N.pl3        1 UNL1     -0.3170
     16 C         -2.929519   -2.215662   4.252347 C.3        1 UNL1     0.1275
     17 N         -1.481555   -2.618512   4.389588 N.2        1 UNL1     -0.2557
     18 C         -3.548575   -3.193063   3.257782 C.3        1 UNL1     0.0016
     19 C         -5.06129   -3.051166   3.313867 C.3        1 UNL1     0.0026
     20 N         -5.414627   -1.676682   2.986796 N.3        1 UNL1     -0.3018
     21 C         -4.815838   -0.658133   3.851885 C.3        1 UNL1     0.0026
     22 C         -3.296198   -0.816063   3.776725 C.3        1 UNL1     0.0016
     23 C         -6.828911   -1.506306   2.719561 C.3        1 UNL1     0.0012
     24 C         -7.209782   -2.173584   1.388609 C.3        1 UNL1     -0.0339
     25 C         -6.459106   -3.500613   1.189765 C.3        1 UNL1     -0.0615
     26 C         -8.714524   -2.365984   1.314349 C.3        1 UNL1     -0.0615
     27 C         0.350239   -5.814576   7.735029 C.ar        1 UNL1     0.1347
     28 C         1.653062   -5.77937   7.270848 C.ar        1 UNL1     0.0342
     29 C         1.884412   -4.834279   6.248867 C.ar        1 UNL1     0.1435
     30 C         0.873231   -4.034712   5.714615 C.ar        1 UNL1     0.0774
     31 O         3.075806   -4.757308   5.616679 O.3        1 UNL1     -0.4436
     32 C         2.791545   -4.067979   4.389938 C.3        1 UNL1     0.3143
     33 C         1.52332   -3.28408   4.660717 C.2        1 UNL1     0.2504
     34 C         2.745523   -6.745479   7.635898 C.3        1 UNL1     -0.0327
     35 O         3.838306   -3.11076   4.186774 O.2        1 UNL1     -0.4528
     36 C         4.18333   -2.728446   0.426071 C.3        1 UNL1     0.0854
     37 C         3.096083   -2.308833   -0.636634 C.3        1 UNL1     0.0236
     38 C         3.496746   -1.056908   -1.555273 C.3        1 UNL1     0.1131
     39 C         4.015529   0.277047   -0.881699 C.3        1 UNL1     0.0200
     40 C         3.259076   0.888973   0.473204 C.3        1 UNL1     0.0661
     41 C         1.59033   1.134319   0.654041 C.3        1 UNL1     0.0091
     42 C         0.526807   1.029505   2.145126 C.3        1 UNL1     0.0661
     43 C         -2.080375   -5.223225   7.634693 C.2        1 UNL1     0.2131
     44 O         -2.48028   -6.20833   8.22831 O.2        1 UNL1     -0.2851
     45 O         0.032355   -6.648588   8.804988 O.3        1 UNL1     -0.5056
     46 O         1.145513   -2.258664   4.139528 O.2        1 UNL1     -0.2836
     47 C         1.03362   2.235819   4.470156 C.3        1 UNL1     -0.0566
     48 O         -0.163219   2.315694   1.883019 O.3        1 UNL1     -0.3909
     49 C         0.866768   0.405306   -0.456136 C.3        1 UNL1     -0.0577
     50 O         3.792905   0.313004   1.648367 O.3        1 UNL1     -0.3910
     51 O         5.284165   -1.857695   0.557928 O.3        1 UNL1     -0.3753
     52 C         1.643642   -2.510386   -0.093734 C.3        1 UNL1     -0.0564
     53 O         2.626185   -0.898462   -2.767438 O.3        1 UNL1     -0.4608
     54 C         2.862451   -0.040284   -3.809377 C.2        1 UNL1     0.3042
     55 O         2.740987   -0.273535   -5.011325 O.2        1 UNL1     -0.2512
     56 C         3.25805   1.341521   -3.372534 C.3        1 UNL1     0.0332
     57 C         5.614228   0.228841   -0.88492 C.3        1 UNL1     -0.0567
     58 C         2.488714   -5.158097   3.335678 C.3        1 UNL1     0.0210
     59 C         6.224897   -2.22899   1.564421 C.3        1 UNL1     0.0372
     60 C         3.660715   -2.970501   1.798457 C.2        1 UNL1     -0.0208
     61 C         4.131142   -2.58038   2.983889 C.2        1 UNL1     0.0882
     62 H         0.888708   0.136489   4.075016 H        1 UNL1     0.0365
     63 H         -0.161023   -0.536681   5.692153 H        1 UNL1     0.0576
     64 H         -2.682554   1.169108   6.170631 H        1 UNL1     0.0615
     65 H         -1.570868   -1.412191   7.534049 H        1 UNL1     0.0622
     66 H         4.556844   -3.69901   0.070347 H        1 UNL1     0.0645
     67 H         3.10733   -3.132659   -1.371307 H        1 UNL1     0.0362
     68 H         4.370361   -1.481044   -2.073373 H        1 UNL1     0.0741
     69 H         3.919078   1.086444   -1.593023 H        1 UNL1     0.0359
     70 H         3.658653   1.921121   0.46489 H        1 UNL1     0.0600
     71 H         1.511166   2.184738   0.311535 H        1 UNL1     0.0348
     72 H         1.556013   1.146647   2.514352 H        1 UNL1     0.0602
     73 H         2.851553   -3.656049   1.74817 H        1 UNL1     0.0628
     74 H         4.917594   -1.837475   3.121081 H        1 UNL1     0.1022
     75 H         -5.016365   0.216165   9.032335 H        1 UNL1     0.0279
     76 H         -5.735611   -0.883271   7.924534 H        1 UNL1     0.0279
     77 H         -5.25502   -1.386024   9.595333 H        1 UNL1     0.0279
     78 H         -4.731611   -3.292769   7.457373 H        1 UNL1     0.1553
     79 H         -4.465193   -2.30427   5.760872 H        1 UNL1     0.1484
     80 H         -3.162737   -2.974785   2.254661 H        1 UNL1     0.0317
     81 H         -3.256937   -4.223299   3.488462 H        1 UNL1     0.0317
     82 H         -5.461058   -3.339328   4.29726 H        1 UNL1     0.0428
     83 H         -5.48253   -3.75816   2.598489 H        1 UNL1     0.0428
     84 H         -5.032333   0.367374   3.536802 H        1 UNL1     0.0428
     85 H         -5.207844   -0.710658   4.877014 H        1 UNL1     0.0428
     86 H         -2.891102   0.022804   4.31169 H        1 UNL1     0.0317
     87 H         -2.952731   -0.651008   2.74819 H        1 UNL1     0.0317
     88 H         -7.390271   -1.993071   3.527787 H        1 UNL1     0.0429
     89 H         -7.110929   -0.44555   2.725676 H        1 UNL1     0.0429
     90 H         -6.952837   -1.499886   0.562581 H        1 UNL1     0.0308
     91 H         -6.676058   -3.937405   0.210354 H        1 UNL1     0.0233
     92 H         -5.3809   -3.352621   1.28557 H        1 UNL1     0.0233
     93 H         -6.732584   -4.251711   1.940695 H        1 UNL1     0.0233
     94 H         -9.001797   -3.295255   1.818101 H        1 UNL1     0.0233
     95 H         -9.222293   -1.538636   1.817963 H        1 UNL1     0.0233
     96 H         -9.060046   -2.413709   0.277862 H        1 UNL1     0.0233
     97 H         3.178832   -6.522823   8.606412 H        1 UNL1     0.0280
     98 H         2.379922   -7.778675   7.699899 H        1 UNL1     0.0280
     99 H         3.547086   -6.698731   6.880645 H        1 UNL1     0.0280
     100 H         -0.588016   -7.326524   8.602099 H        1 UNL1     0.2922
     101 H         2.080581   1.959917   4.594282 H        1 UNL1     0.0236
     102 H         0.624435   2.701605   5.366031 H        1 UNL1     0.0236
     103 H         1.043635   3.039554   3.715105 H        1 UNL1     0.0236
     104 H         -0.680159   2.541074   2.681109 H        1 UNL1     0.2098
     105 H         0.544372   1.042171   -1.276059 H        1 UNL1     0.0234
     106 H         1.388258   -0.470985   -0.84096 H        1 UNL1     0.0234
     107 H         0.0   -0.0   0.0 H        1 UNL1     0.0234
     108 H         3.655702   -0.65195   1.586662 H        1 UNL1     0.2098
     109 H         0.947987   -1.749498   -0.474296 H        1 UNL1     0.0234
     110 H         1.242367   -3.508812   -0.298346 H        1 UNL1     0.0234
     111 H         1.605447   -2.427266   1.000605 H        1 UNL1     0.0234
     112 H         3.410806   1.979297   -4.248463 H        1 UNL1     0.0342
     113 H         2.529731   1.780152   -2.692094 H        1 UNL1     0.0342
     114 H         4.214409   1.271184   -2.836255 H        1 UNL1     0.0342
     115 H         6.05269   1.20218   -0.625013 H        1 UNL1     0.0234
     116 H         6.037348   -0.513816   -0.205597 H        1 UNL1     0.0234
     117 H         6.047251   0.06054   -1.885973 H        1 UNL1     0.0234
     118 H         3.387845   -5.439125   2.759835 H        1 UNL1     0.0309
     119 H         2.042801   -6.060238   3.766383 H        1 UNL1     0.0309
     120 H         1.791663   -4.81419   2.563697 H        1 UNL1     0.0309
     121 H         7.180139   -1.771931   1.307582 H        1 UNL1     0.0524
     122 H         5.93752   -1.858867   2.56265 H        1 UNL1     0.0524
     123 H         6.325323   -3.309912   1.60462 H        1 UNL1     0.0524
@<TRIPOS>BOND
     1     1     2    1
     2     1    42    1
     3     2     3    2
     4     3     4    1
     5     4     5    2
     6     5     7    1
     7     6    75    1
     8     6    76    1
     9     6    77    1
    10     7     9   am
    11     9    10    1
    12    10    11    2
    13    10    43    1
    14    11    14    1
    15    11    15    1
    16    12    13   ar
    17    12    27   ar
    18    12    43    1
    19    13    14    1
    20    13    30   ar
    21    14    17    2
    22    15    16    1
    23    16    17    1
    24    16    18    1
    25    16    22    1
    26    18    19    1
    27    19    20    1
    28    20    21    1
    29    21    22    1
    30    23    24    1
    31    23    88    1
    32    23    89    1
    33    24    25    1
    34    24    26    1
    35    24    90    1
    36    25    91    1
    37    25    92    1
    38    25    93    1
    39    26    94    1
    40    26    95    1
    41    26    96    1
    42    27    28   ar
    43    28    29   ar
    44    29    30   ar
    45    29    31    1
    46    30    33    1
    47    31    32    1
    48    32    33    1
    49    32    35    1
    50    34    97    1
    51    34    98    1
    52    34    99    1
    53    35    61    1
    54    36    37    1
    55    36    60    1
    56    37    38    1
    57    38    39    1
    58    39    40    1
    59    40    41    1
    60    41    42    1
    61    45   100    1
    62    47   101    1
    63    47   102    1
    64    47   103    1
    65    48   104    1
    66    49   105    1
    67    49   106    1
    68    49   107    1
    69    50   108    1
    70    51    59    1
    71    52   109    1
    72    52   110    1
    73    52   111    1
    74    53    54    1
    75    54    55    2
    76    54    56    1
    77    56   112    1
    78    56   113    1
    79    56   114    1
    80    57   115    1
    81    57   116    1
    82    57   117    1
    83    58   118    1
    84    58   119    1
    85    58   120    1
    86    59   121    1
    87    59   122    1
    88    59   123    1
    89    60    61    2
    90     1    47    1
    91     1    62    1
    92     2    63    1
    93     3    64    1
    94     4    65    1
    95     5     6    1
    96     7     8    2
    97     9    78    1
    98    15    79    1
    99    18    80    1
   100    18    81    1
   101    19    82    1
   102    19    83    1
   103    20    23    1
   104    21    84    1
   105    21    85    1
   106    22    86    1
   107    22    87    1
   108    27    45    1
   109    28    34    1
   110    32    58    1
   111    33    46    2
   112    36    51    1
   113    36    66    1
   114    37    52    1
   115    37    67    1
   116    38    53    1
   117    38    68    1
   118    42    48    1
   119    42    72    1
   120    43    44    2
   121    60    73    1
   122    61    74    1
   123    39    69    1
   124    39    57    1
   125    40    70    1
   126    40    50    1
   127    41    71    1
   128    41    49    1
