@<TRIPOS>MOLECULE
*****
 123 128 0 0 0
SMALL
GASTEIGER

@<TRIPOS>ATOM
     1 C         4.046739   2.043595   -2.90254 C.3        1 UNL1     0.0009
     2 C         4.600382   3.574861   -3.78896 C.2        1 UNL1     -0.0787
     3 C         4.903048   4.273235   -5.020509 C.2        1 UNL1     -0.0649
     4 C         5.307252   5.905287   -5.21896 C.2        1 UNL1     -0.0542
     5 C         5.37433   6.981336   -6.138035 C.2        1 UNL1     0.0115
     6 C         5.272215   7.357763   -7.641763 C.3        1 UNL1     -0.0348
     7 C         5.470463   8.480807   -5.57294 C.2        1 UNL1     0.2441
     8 O         6.51599   9.115288   -5.544086 O.2        1 UNL1     -0.2702
     9 N         4.231741   9.109188   -5.356473 N.am        1 UNL1     -0.2772
     10 C         3.769305   8.835492   -4.089759 C.2        1 UNL1     0.1049
     11 C         3.138623   7.685316   -3.936273 C.2        1 UNL1     0.0801
     12 C         4.460647   8.821303   -1.685766 C.ar        1 UNL1     0.0753
     13 C         3.945783   7.487118   -1.626825 C.ar        1 UNL1     0.0305
     14 C         3.149604   6.925415   -2.715697 C.2        1 UNL1     0.0924
     15 N         2.684232   6.819533   -4.858485 N.pl3        1 UNL1     -0.3170
     16 C         1.91973   5.810386   -4.174809 C.3        1 UNL1     0.1275
     17 N         2.516373   5.758156   -2.789525 N.2        1 UNL1     -0.2557
     18 C         0.50378   6.352831   -4.005869 C.3        1 UNL1     0.0016
     19 C         -0.038575   6.731331   -5.374876 C.3        1 UNL1     0.0026
     20 N         -0.028396   5.549066   -6.225271 N.3        1 UNL1     -0.3018
     21 C         1.282037   4.918762   -6.398054 C.3        1 UNL1     0.0026
     22 C         1.805989   4.542571   -5.011026 C.3        1 UNL1     0.0016
     23 C         -0.795263   5.723469   -7.442704 C.3        1 UNL1     0.0012
     24 C         -1.400921   7.134718   -7.500253 C.3        1 UNL1     -0.0339
     25 C         -0.307358   8.214438   -7.549065 C.3        1 UNL1     -0.0615
     26 C         -2.349867   7.24643   -8.680847 C.3        1 UNL1     -0.0615
     27 C         5.114498   9.391403   -0.596004 C.ar        1 UNL1     0.1347
     28 C         5.278026   8.742033   0.614627 C.ar        1 UNL1     0.0342
     29 C         4.806484   7.412198   0.633313 C.ar        1 UNL1     0.1435
     30 C         4.181703   6.815443   -0.462476 C.ar        1 UNL1     0.0774
     31 O         4.793657   6.684936   1.771703 O.3        1 UNL1     -0.4436
     32 C         3.850308   5.632694   1.519212 C.3        1 UNL1     0.3143
     33 C         3.797062   5.501998   0.010472 C.2        1 UNL1     0.2504
     34 C         5.740176   9.373282   1.898388 C.3        1 UNL1     -0.0327
     35 O         4.421119   4.418859   2.023228 O.2        1 UNL1     -0.4528
     36 C         1.490097   2.251188   3.080773 C.3        1 UNL1     0.0854
     37 C         0.263403   1.748398   2.226404 C.3        1 UNL1     0.0236
     38 C         0.048272   0.159231   2.222857 C.3        1 UNL1     0.1131
     39 C         1.262476   -0.796686   1.884921 C.3        1 UNL1     0.0200
     40 C         2.291185   -0.441255   0.620855 C.3        1 UNL1     0.0661
     41 C         1.822244   -0.042264   -0.959813 C.3        1 UNL1     0.0091
     42 C         2.61014   1.066473   -2.190798 C.3        1 UNL1     0.0661
     43 C         4.196543   9.609796   -2.914907 C.2        1 UNL1     0.2131
     44 O         4.220416   10.826673   -2.952023 O.2        1 UNL1     -0.2851
     45 O         5.625784   10.678209   -0.751427 O.3        1 UNL1     -0.5056
     46 O         3.521051   4.527004   -0.652144 O.2        1 UNL1     -0.2836
     47 C         5.18283   0.985682   -2.89262 C.3        1 UNL1     -0.0566
     48 O         2.506147   0.092248   -3.303986 O.3        1 UNL1     -0.3909
     49 C         0.343024   0.272976   -0.96511 C.3        1 UNL1     -0.0577
     50 O         3.331473   0.415437   1.047006 O.3        1 UNL1     -0.3910
     51 O         2.340976   1.247582   3.586946 O.3        1 UNL1     -0.3753
     52 C         0.051144   2.618795   0.94488 C.3        1 UNL1     -0.0564
     53 O         -1.297476   -0.263489   1.710416 O.3        1 UNL1     -0.4608
     54 C         -1.73759   -0.121478   0.42043 C.2        1 UNL1     0.3042
     55 O         -2.894543   0.056172   0.041303 O.2        1 UNL1     -0.2512
     56 C         -0.632663   -0.137728   -0.597207 C.3        1 UNL1     0.0332
     57 C         1.915637   -1.255153   3.271054 C.3        1 UNL1     -0.0567
     58 C         2.480568   6.142695   2.024424 C.3        1 UNL1     0.0210
     59 C         2.394025   1.168627   5.01061 C.3        1 UNL1     0.0372
     60 C         2.360582   3.250634   2.40363 C.2        1 UNL1     -0.0208
     61 C         3.689856   3.330168   2.329813 C.2        1 UNL1     0.0882
     62 H         4.119198   2.58952   -1.954159 H        1 UNL1     0.0365
     63 H         4.839517   4.223999   -2.944031 H        1 UNL1     0.0576
     64 H         4.729491   3.81423   -5.996367 H        1 UNL1     0.0615
     65 H         5.535457   6.2425   -4.204222 H        1 UNL1     0.0622
     66 H         1.036185   2.775528   3.933462 H        1 UNL1     0.0645
     67 H         -0.618174   2.087942   2.797448 H        1 UNL1     0.0362
     68 H         -0.160153   -0.000562   3.291757 H        1 UNL1     0.0741
     69 H         0.874322   -1.76803   1.608811 H        1 UNL1     0.0359
     70 H         2.779738   -1.425761   0.489993 H        1 UNL1     0.0600
     71 H         1.831474   -1.048016   -1.423855 H        1 UNL1     0.0348
     72 H         3.393374   0.820479   -1.459124 H        1 UNL1     0.0602
     73 H         1.760339   4.047705   2.040813 H        1 UNL1     0.0628
     74 H         4.372668   2.532846   2.62525 H        1 UNL1     0.1022
     75 H         5.196409   8.465124   -7.764399 H        1 UNL1     0.0279
     76 H         6.130488   7.111495   -8.262882 H        1 UNL1     0.0279
     77 H         4.330123   7.023817   -8.100722 H        1 UNL1     0.0279
     78 H         3.545873   8.749946   -6.017236 H        1 UNL1     0.1553
     79 H         2.52937   7.060533   -5.820187 H        1 UNL1     0.1484
     80 H         -0.117736   5.586797   -3.526625 H        1 UNL1     0.0317
     81 H         0.495095   7.223951   -3.341998 H        1 UNL1     0.0317
     82 H         0.538122   7.550539   -5.829003 H        1 UNL1     0.0428
     83 H         -1.048216   7.11732   -5.231043 H        1 UNL1     0.0428
     84 H         1.24901   3.989085   -6.974613 H        1 UNL1     0.0428
     85 H         1.972326   5.55938   -6.964118 H        1 UNL1     0.0428
     86 H         2.697355   3.968552   -5.184103 H        1 UNL1     0.0317
     87 H         1.12817   3.822091   -4.537142 H        1 UNL1     0.0317
     88 H         -0.114965   5.60007   -8.295501 H        1 UNL1     0.0429
     89 H         -1.572871   4.95466   -7.537746 H        1 UNL1     0.0429
     90 H         -2.014259   7.299086   -6.606379 H        1 UNL1     0.0308
     91 H         0.042699   8.380007   -8.572368 H        1 UNL1     0.0233
     92 H         -0.676997   9.157422   -7.139484 H        1 UNL1     0.0233
     93 H         0.572123   7.945399   -6.951599 H        1 UNL1     0.0233
     94 H         -3.235842   6.624442   -8.513468 H        1 UNL1     0.0233
     95 H         -2.681924   8.281947   -8.796633 H        1 UNL1     0.0233
     96 H         -1.871214   6.923289   -9.609523 H        1 UNL1     0.0233
     97 H         5.057846   9.173782   2.719276 H        1 UNL1     0.0280
     98 H         6.717326   8.989739   2.219835 H        1 UNL1     0.0280
     99 H         5.81314   10.46534   1.76731 H        1 UNL1     0.0280
     100 H         6.562429   10.738281   -0.682799 H        1 UNL1     0.2922
     101 H         5.921926   1.232731   -3.654434 H        1 UNL1     0.0236
     102 H         4.818035   -0.036018   -2.992799 H        1 UNL1     0.0236
     103 H         5.745738   0.991372   -1.944309 H        1 UNL1     0.0236
     104 H         2.662751   -0.797937   -2.932481 H        1 UNL1     0.2098
     105 H         0.10826   1.323536   -1.116835 H        1 UNL1     0.0234
     106 H         -0.252446   -0.347684   -1.63453 H        1 UNL1     0.0234
     107 H         -0.0   0.0   0.0 H        1 UNL1     0.0234
     108 H         2.932455   1.08704   1.633097 H        1 UNL1     0.2098
     109 H         -0.997307   2.625602   0.615612 H        1 UNL1     0.0234
     110 H         0.405569   3.64872   1.06055 H        1 UNL1     0.0234
     111 H         0.627561   2.232943   0.093524 H        1 UNL1     0.0234
     112 H         0.052634   0.695826   -0.415817 H        1 UNL1     0.0342
     113 H         -0.099178   -1.087009   -0.607367 H        1 UNL1     0.0342
     114 H         -1.079387   0.003702   -1.590988 H        1 UNL1     0.0342
     115 H         1.18782   -1.76629   3.916196 H        1 UNL1     0.0234
     116 H         2.776594   -1.917099   3.158675 H        1 UNL1     0.0234
     117 H         2.216501   -0.411592   3.9159 H        1 UNL1     0.0234
     118 H         2.376884   7.235816   1.908917 H        1 UNL1     0.0309
     119 H         1.63268   5.649223   1.538857 H        1 UNL1     0.0309
     120 H         2.345496   5.988503   3.100568 H        1 UNL1     0.0309
     121 H         2.476851   0.115937   5.279569 H        1 UNL1     0.0524
     122 H         3.273938   1.687591   5.425904 H        1 UNL1     0.0524
     123 H         1.494853   1.596744   5.444544 H        1 UNL1     0.0524
@<TRIPOS>BOND
     1     1     2    1
     2     1    42    1
     3     2     3    2
     4     3     4    1
     5     4     5    2
     6     5     7    1
     7     6    75    1
     8     6    76    1
     9     6    77    1
    10     7     9   am
    11     9    10    1
    12    10    11    2
    13    10    43    1
    14    11    14    1
    15    11    15    1
    16    12    13   ar
    17    12    27   ar
    18    12    43    1
    19    13    14    1
    20    13    30   ar
    21    14    17    2
    22    15    16    1
    23    16    17    1
    24    16    18    1
    25    16    22    1
    26    18    19    1
    27    19    20    1
    28    20    21    1
    29    21    22    1
    30    23    24    1
    31    23    88    1
    32    23    89    1
    33    24    25    1
    34    24    26    1
    35    24    90    1
    36    25    91    1
    37    25    92    1
    38    25    93    1
    39    26    94    1
    40    26    95    1
    41    26    96    1
    42    27    28   ar
    43    28    29   ar
    44    29    30   ar
    45    29    31    1
    46    30    33    1
    47    31    32    1
    48    32    33    1
    49    32    35    1
    50    34    97    1
    51    34    98    1
    52    34    99    1
    53    35    61    1
    54    36    37    1
    55    36    60    1
    56    37    38    1
    57    38    39    1
    58    39    40    1
    59    40    41    1
    60    41    42    1
    61    45   100    1
    62    47   101    1
    63    47   102    1
    64    47   103    1
    65    48   104    1
    66    49   105    1
    67    49   106    1
    68    49   107    1
    69    50   108    1
    70    51    59    1
    71    52   109    1
    72    52   110    1
    73    52   111    1
    74    53    54    1
    75    54    55    2
    76    54    56    1
    77    56   112    1
    78    56   113    1
    79    56   114    1
    80    57   115    1
    81    57   116    1
    82    57   117    1
    83    58   118    1
    84    58   119    1
    85    58   120    1
    86    59   121    1
    87    59   122    1
    88    59   123    1
    89    60    61    2
    90     1    47    1
    91     1    62    1
    92     2    63    1
    93     3    64    1
    94     4    65    1
    95     5     6    1
    96     7     8    2
    97     9    78    1
    98    15    79    1
    99    18    80    1
   100    18    81    1
   101    19    82    1
   102    19    83    1
   103    20    23    1
   104    21    84    1
   105    21    85    1
   106    22    86    1
   107    22    87    1
   108    27    45    1
   109    28    34    1
   110    32    58    1
   111    33    46    2
   112    36    51    1
   113    36    66    1
   114    37    52    1
   115    37    67    1
   116    38    53    1
   117    38    68    1
   118    42    48    1
   119    42    72    1
   120    43    44    2
   121    60    73    1
   122    61    74    1
   123    39    69    1
   124    39    57    1
   125    40    70    1
   126    40    50    1
   127    41    71    1
   128    41    49    1
