@<TRIPOS>MOLECULE
*****
 123 128 0 0 0
SMALL
GASTEIGER

@<TRIPOS>ATOM
     1 C         -0.372662   0.193579   -5.462179 C.3        1 UNL1     0.0009
     2 C         -0.483768   1.287976   -6.954489 C.2        1 UNL1     -0.0787
     3 C         -1.266628   1.902675   -8.005831 C.2        1 UNL1     -0.0649
     4 C         -0.75923   3.042695   -9.15006 C.2        1 UNL1     -0.0542
     5 C         -1.183343   4.041311   -10.061088 C.2        1 UNL1     0.0115
     6 C         -2.426728   4.665013   -10.752689 C.3        1 UNL1     -0.0348
     7 C         -0.112398   5.111585   -10.594547 C.2        1 UNL1     0.2441
     8 O         0.399548   5.044604   -11.703578 O.2        1 UNL1     -0.2702
     9 N         0.002389   6.271687   -9.808966 N.am        1 UNL1     -0.2772
     10 C         0.930008   6.085268   -8.80992 C.2        1 UNL1     0.1049
     11 C         0.499329   5.470935   -7.723029 C.2        1 UNL1     0.0801
     12 C         3.259212   5.274447   -8.391933 C.ar        1 UNL1     0.0753
     13 C         2.705931   4.462491   -7.351156 C.ar        1 UNL1     0.0305
     14 C         1.327631   4.634384   -6.897513 C.2        1 UNL1     0.0924
     15 N         -0.753837   5.177046   -7.336077 N.pl3        1 UNL1     -0.3170
     16 C         -0.689703   4.659805   -5.994956 C.3        1 UNL1     0.1275
     17 N         0.685597   4.046933   -5.891719 N.2        1 UNL1     -0.2557
     18 C         -0.692306   5.856256   -5.048278 C.3        1 UNL1     0.0016
     19 C         -1.922359   6.702021   -5.336796 C.3        1 UNL1     0.0026
     20 N         -3.109899   5.880709   -5.146472 N.3        1 UNL1     -0.3018
     21 C         -3.168359   4.671773   -5.970744 C.3        1 UNL1     0.0026
     22 C         -1.925799   3.834954   -5.661434 C.3        1 UNL1     0.0016
     23 C         -4.33226   6.658251   -5.102841 C.3        1 UNL1     0.0012
     24 C         -4.39736   7.487388   -3.810537 C.3        1 UNL1     -0.0339
     25 C         -4.482549   8.99271   -4.111878 C.3        1 UNL1     -0.0615
     26 C         -5.560501   7.022546   -2.951582 C.3        1 UNL1     -0.0615
     27 C         4.6062   5.188033   -8.735843 C.ar        1 UNL1     0.1347
     28 C         5.502907   4.358789   -8.08598 C.ar        1 UNL1     0.0342
     29 C         4.92565   3.533369   -7.097739 C.ar        1 UNL1     0.1435
     30 C         3.57084   3.583022   -6.76722 C.ar        1 UNL1     0.0774
     31 O         5.68583   2.750825   -6.301021 O.3        1 UNL1     -0.4436
     32 C         4.847763   2.4597   -5.17241 C.3        1 UNL1     0.3143
     33 C         3.429769   2.644135   -5.673896 C.2        1 UNL1     0.2504
     34 C         6.999145   4.394696   -8.227688 C.3        1 UNL1     -0.0327
     35 O         5.006271   1.06763   -4.871963 O.2        1 UNL1     -0.4528
     36 C         4.455984   0.74131   -1.130467 C.3        1 UNL1     0.0854
     37 C         3.203638   1.158892   -0.267462 C.3        1 UNL1     0.0236
     38 C         2.57651   -0.015865   0.62607 C.3        1 UNL1     0.1131
     39 C         2.228693   -1.408145   -0.0394 C.3        1 UNL1     0.0200
     40 C         1.472591   -1.469096   -1.525008 C.3        1 UNL1     0.0661
     41 C         0.077519   -0.610608   -1.965896 C.3        1 UNL1     0.0091
     42 C         -0.437659   0.069634   -3.589862 C.3        1 UNL1     0.0661
     43 C         2.370994   6.2759   -9.032574 C.2        1 UNL1     0.2131
     44 O         2.780588   7.260332   -9.620675 O.2        1 UNL1     -0.2851
     45 O         5.054742   5.980092   -9.790779 O.3        1 UNL1     -0.5056
     46 O         2.415047   2.117557   -5.275261 O.2        1 UNL1     -0.2836
     47 C         -0.463317   -1.298812   -5.879952 C.3        1 UNL1     -0.0566
     48 O         -1.815172   -0.473477   -3.508583 O.3        1 UNL1     -0.3909
     49 C         -0.179132   0.465987   -0.935087 C.3        1 UNL1     -0.0577
     50 O         2.420641   -1.421013   -2.572201 O.3        1 UNL1     -0.3910
     51 O         4.761077   -0.634936   -1.14767 O.3        1 UNL1     -0.3753
     52 C         2.310491   2.207436   -1.007592 C.3        1 UNL1     -0.0564
     53 O         1.631283   0.473601   1.684038 O.3        1 UNL1     -0.4608
     54 C         0.481016   -0.159164   2.077006 C.2        1 UNL1     0.3042
     55 O         -0.631113   0.342968   2.234713 O.2        1 UNL1     -0.2512
     56 C         0.644656   -1.640127   2.268534 C.3        1 UNL1     0.0332
     57 C         3.472786   -2.383357   0.204259 C.3        1 UNL1     -0.0567
     58 C         5.147566   3.545877   -4.113227 C.3        1 UNL1     0.0210
     59 C         5.927791   -0.999481   -0.411632 C.3        1 UNL1     0.0372
     60 C         4.420405   1.190845   -2.548852 C.2        1 UNL1     -0.0208
     61 C         4.710644   0.532533   -3.671853 C.2        1 UNL1     0.0882
     62 H         0.69489   0.433828   -5.389201 H        1 UNL1     0.0365
     63 H         0.568888   1.537952   -7.102462 H        1 UNL1     0.0576
     64 H         -2.352642   1.793956   -8.04898 H        1 UNL1     0.0615
     65 H         0.331517   3.015217   -9.079353 H        1 UNL1     0.0622
     66 H         5.29973   1.271957   -0.667271 H        1 UNL1     0.0645
     67 H         3.621957   1.824568   0.507422 H        1 UNL1     0.0362
     68 H         3.429703   -0.215849   1.292095 H        1 UNL1     0.0741
     69 H         1.535468   -1.936638   0.601336 H        1 UNL1     0.0359
     70 H         1.121764   -2.518822   -1.517489 H        1 UNL1     0.0600
     71 H         -0.699123   -1.354557   -1.700709 H        1 UNL1     0.0348
     72 H         0.325831   -0.691117   -3.808162 H        1 UNL1     0.0602
     73 H         4.232013   2.235264   -2.579592 H        1 UNL1     0.0628
     74 H         4.858684   -0.546126   -3.733618 H        1 UNL1     0.1022
     75 H         -2.289253   5.764869   -10.888525 H        1 UNL1     0.0279
     76 H         -2.638461   4.328589   -11.76514 H        1 UNL1     0.0279
     77 H         -3.32529   4.635457   -10.119116 H        1 UNL1     0.0279
     78 H         -0.89065   6.47325   -9.36407 H        1 UNL1     0.1553
     79 H         -1.57105   5.625719   -7.707275 H        1 UNL1     0.1484
     80 H         -0.689546   5.49331   -4.013373 H        1 UNL1     0.0317
     81 H         0.215962   6.455614   -5.172662 H        1 UNL1     0.0317
     82 H         -1.894475   7.12874   -6.350228 H        1 UNL1     0.0428
     83 H         -1.903468   7.550447   -4.652057 H        1 UNL1     0.0428
     84 H         -4.029373   4.032679   -5.751594 H        1 UNL1     0.0428
     85 H         -3.277333   4.90953   -7.037943 H        1 UNL1     0.0428
     86 H         -2.067746   2.903911   -6.178151 H        1 UNL1     0.0317
     87 H         -1.925397   3.541212   -4.604641 H        1 UNL1     0.0317
     88 H         -4.330769   7.345272   -5.959167 H        1 UNL1     0.0429
     89 H         -5.216833   6.016758   -5.206722 H        1 UNL1     0.0429
     90 H         -3.493955   7.300479   -3.217968 H        1 UNL1     0.0308
     91 H         -4.173509   9.210926   -5.138512 H        1 UNL1     0.0233
     92 H         -5.499645   9.360589   -3.95764 H        1 UNL1     0.0233
     93 H         -3.83892   9.587669   -3.452636 H        1 UNL1     0.0233
     94 H         -5.742121   7.738147   -2.142406 H        1 UNL1     0.0233
     95 H         -6.469611   6.959409   -3.556144 H        1 UNL1     0.0233
     96 H         -5.362592   6.042588   -2.508317 H        1 UNL1     0.0233
     97 H         7.325134   4.035652   -9.19931 H        1 UNL1     0.0280
     98 H         7.399423   5.412632   -8.133666 H        1 UNL1     0.0280
     99 H         7.458591   3.759621   -7.452649 H        1 UNL1     0.0280
     100 H         4.526408   5.932717   -10.568109 H        1 UNL1     0.2922
     101 H         0.525148   -1.755073   -5.830775 H        1 UNL1     0.0236
     102 H         -0.932864   -1.443985   -6.852286 H        1 UNL1     0.0236
     103 H         -1.07874   -1.888187   -5.179892 H        1 UNL1     0.0236
     104 H         -1.958197   -0.778811   -2.591367 H        1 UNL1     0.2098
     105 H         0.481348   1.326191   -1.010104 H        1 UNL1     0.0234
     106 H         -1.216963   0.791515   -0.865337 H        1 UNL1     0.0234
     107 H         0.0   0.0   0.0 H        1 UNL1     0.0234
     108 H         1.924732   -1.32893   -3.408481 H        1 UNL1     0.2098
     109 H         2.85479   3.136614   -1.226862 H        1 UNL1     0.0234
     110 H         1.863703   1.818385   -1.928876 H        1 UNL1     0.0234
     111 H         1.44694   2.505552   -0.398205 H        1 UNL1     0.0234
     112 H         -0.049195   -2.178694   1.615952 H        1 UNL1     0.0342
     113 H         1.670616   -1.963971   2.100084 H        1 UNL1     0.0342
     114 H         0.385654   -1.882281   3.308459 H        1 UNL1     0.0342
     115 H         3.228135   -3.426287   -0.039933 H        1 UNL1     0.0234
     116 H         4.365786   -2.114037   -0.363249 H        1 UNL1     0.0234
     117 H         3.758822   -2.474613   1.266237 H        1 UNL1     0.0234
     118 H         5.050476   4.565343   -4.525862 H        1 UNL1     0.0309
     119 H         4.520509   3.459761   -3.220151 H        1 UNL1     0.0309
     120 H         6.184118   3.513971   -3.760172 H        1 UNL1     0.0309
     121 H         6.314951   -1.922108   -0.843168 H        1 UNL1     0.0524
     122 H         6.723256   -0.239291   -0.485017 H        1 UNL1     0.0524
     123 H         5.679863   -1.150451   0.635188 H        1 UNL1     0.0524
@<TRIPOS>BOND
     1     1     2    1
     2     1    42    1
     3     2     3    2
     4     3     4    1
     5     4     5    2
     6     5     7    1
     7     6    75    1
     8     6    76    1
     9     6    77    1
    10     7     9   am
    11     9    10    1
    12    10    11    2
    13    10    43    1
    14    11    14    1
    15    11    15    1
    16    12    13   ar
    17    12    27   ar
    18    12    43    1
    19    13    14    1
    20    13    30   ar
    21    14    17    2
    22    15    16    1
    23    16    17    1
    24    16    18    1
    25    16    22    1
    26    18    19    1
    27    19    20    1
    28    20    21    1
    29    21    22    1
    30    23    24    1
    31    23    88    1
    32    23    89    1
    33    24    25    1
    34    24    26    1
    35    24    90    1
    36    25    91    1
    37    25    92    1
    38    25    93    1
    39    26    94    1
    40    26    95    1
    41    26    96    1
    42    27    28   ar
    43    28    29   ar
    44    29    30   ar
    45    29    31    1
    46    30    33    1
    47    31    32    1
    48    32    33    1
    49    32    35    1
    50    34    97    1
    51    34    98    1
    52    34    99    1
    53    35    61    1
    54    36    37    1
    55    36    60    1
    56    37    38    1
    57    38    39    1
    58    39    40    1
    59    40    41    1
    60    41    42    1
    61    45   100    1
    62    47   101    1
    63    47   102    1
    64    47   103    1
    65    48   104    1
    66    49   105    1
    67    49   106    1
    68    49   107    1
    69    50   108    1
    70    51    59    1
    71    52   109    1
    72    52   110    1
    73    52   111    1
    74    53    54    1
    75    54    55    2
    76    54    56    1
    77    56   112    1
    78    56   113    1
    79    56   114    1
    80    57   115    1
    81    57   116    1
    82    57   117    1
    83    58   118    1
    84    58   119    1
    85    58   120    1
    86    59   121    1
    87    59   122    1
    88    59   123    1
    89    60    61    2
    90     1    47    1
    91     1    62    1
    92     2    63    1
    93     3    64    1
    94     4    65    1
    95     5     6    1
    96     7     8    2
    97     9    78    1
    98    15    79    1
    99    18    80    1
   100    18    81    1
   101    19    82    1
   102    19    83    1
   103    20    23    1
   104    21    84    1
   105    21    85    1
   106    22    86    1
   107    22    87    1
   108    27    45    1
   109    28    34    1
   110    32    58    1
   111    33    46    2
   112    36    51    1
   113    36    66    1
   114    37    52    1
   115    37    67    1
   116    38    53    1
   117    38    68    1
   118    42    48    1
   119    42    72    1
   120    43    44    2
   121    60    73    1
   122    61    74    1
   123    39    69    1
   124    39    57    1
   125    40    70    1
   126    40    50    1
   127    41    71    1
   128    41    49    1
