@<TRIPOS>MOLECULE
*****
 123 128 0 0 0
SMALL
GASTEIGER

@<TRIPOS>ATOM
     1 C         5.17065   1.750666   0.44589 C.3        1 UNL1     0.0009
     2 C         6.599997   2.555994   -0.417505 C.2        1 UNL1     -0.0787
     3 C         7.876305   2.457234   -1.093767 C.2        1 UNL1     -0.0649
     4 C         8.747116   3.691569   -1.858269 C.2        1 UNL1     -0.0542
     5 C         9.759207   3.983219   -2.805734 C.2        1 UNL1     0.0115
     6 C         10.880304   3.356901   -3.679914 C.3        1 UNL1     -0.0348
     7 C         9.849117   5.465697   -3.414966 C.2        1 UNL1     0.2441
     8 O         10.675917   6.288037   -3.045258 O.2        1 UNL1     -0.2702
     9 N         9.089109   5.670941   -4.579618 N.am        1 UNL1     -0.2772
     10 C         7.808959   6.057731   -4.255688 C.2        1 UNL1     0.1049
     11 C         6.965878   5.086503   -3.955433 C.2        1 UNL1     0.0801
     12 C         6.521975   7.665933   -2.83629 C.ar        1 UNL1     0.0753
     13 C         5.766955   6.538429   -2.381002 C.ar        1 UNL1     0.0305
     14 C         5.878826   5.231906   -3.02562 C.2        1 UNL1     0.0924
     15 N         7.087498   3.757345   -4.113788 N.pl3        1 UNL1     -0.3170
     16 C         5.820451   3.158289   -3.788245 C.3        1 UNL1     0.1275
     17 N         5.192006   4.114664   -2.804311 N.2        1 UNL1     -0.2557
     18 C         4.957081   3.215489   -5.044837 C.3        1 UNL1     0.0016
     19 C         5.702696   2.530088   -6.178801 C.3        1 UNL1     0.0026
     20 N         5.976388   1.15256   -5.793392 N.3        1 UNL1     -0.3018
     21 C         6.750091   0.993983   -4.560264 C.3        1 UNL1     0.0026
     22 C         5.980548   1.685797   -3.433724 C.3        1 UNL1     0.0016
     23 C         6.41183   0.331664   -6.905671 C.3        1 UNL1     0.0012
     24 C         5.248298   0.080618   -7.877744 C.3        1 UNL1     -0.0339
     25 C         5.332966   1.001622   -9.106012 C.3        1 UNL1     -0.0615
     26 C         5.211369   -1.383857   -8.278654 C.3        1 UNL1     -0.0615
     27 C         6.321507   8.93429   -2.296659 C.ar        1 UNL1     0.1347
     28 C         5.37042   9.204878   -1.32905 C.ar        1 UNL1     0.0342
     29 C         4.673004   8.070871   -0.861287 C.ar        1 UNL1     0.1435
     30 C         4.888543   6.788229   -1.366849 C.ar        1 UNL1     0.0774
     31 O         3.639139   8.185319   0.000705 O.3        1 UNL1     -0.4436
     32 C         2.916606   6.952141   -0.133802 C.3        1 UNL1     0.3143
     33 C         3.925676   5.958573   -0.673074 C.2        1 UNL1     0.2504
     34 C         4.926934   10.571458   -0.886468 C.3        1 UNL1     -0.0327
     35 O         2.567071   6.517099   1.185976 O.2        1 UNL1     -0.4528
     36 C         -0.678692   4.58362   0.818871 C.3        1 UNL1     0.0854
     37 C         -0.991162   3.321775   -0.074231 C.3        1 UNL1     0.0236
     38 C         -1.584809   2.061634   0.720359 C.3        1 UNL1     0.1131
     39 C         -0.848084   1.532599   2.016364 C.3        1 UNL1     0.0200
     40 C         0.81343   1.387502   2.043859 C.3        1 UNL1     0.0661
     41 C         1.763201   0.617349   0.868101 C.3        1 UNL1     0.0091
     42 C         3.465932   0.979561   0.289384 C.3        1 UNL1     0.0661
     43 C         7.46268   7.456967   -3.964859 C.2        1 UNL1     0.2131
     44 O         7.85633   8.354184   -4.687894 O.2        1 UNL1     -0.2851
     45 O         7.129662   9.968979   -2.763286 O.3        1 UNL1     -0.5056
     46 O         3.943054   4.755217   -0.540836 O.2        1 UNL1     -0.2836
     47 C         5.57911   1.323197   1.881304 C.3        1 UNL1     -0.0566
     48 O         3.915512   -0.431329   0.369299 O.3        1 UNL1     -0.3909
     49 C         0.91875   0.38291   -0.364552 C.3        1 UNL1     -0.0577
     50 O         1.416586   2.606029   2.43002 O.3        1 UNL1     -0.3910
     51 O         -0.791114   4.39577   2.211533 O.3        1 UNL1     -0.3753
     52 C         0.043674   3.160013   -1.235221 C.3        1 UNL1     -0.0564
     53 O         -2.194647   1.02131   -0.173032 O.3        1 UNL1     -0.4608
     54 C         -2.39478   -0.29319   0.158582 C.2        1 UNL1     0.3042
     55 O         -1.72317   -1.262565   -0.19226 O.2        1 UNL1     -0.2512
     56 C         -3.543727   -0.507109   1.102442 C.3        1 UNL1     0.0332
     57 C         -1.558721   2.203106   3.282694 C.3        1 UNL1     -0.0567
     58 C         1.832336   7.195532   -1.209278 C.3        1 UNL1     0.0210
     59 C         -1.09841   5.575689   2.95263 C.3        1 UNL1     0.0372
     60 C         0.648177   5.212707   0.576326 C.2        1 UNL1     -0.0208
     61 C         1.568234   5.649315   1.437496 C.2        1 UNL1     0.0882
     62 H         4.695234   2.734842   0.535816 H        1 UNL1     0.0365
     63 H         6.33438   3.609871   -0.311387 H        1 UNL1     0.0576
     64 H         8.332334   1.490197   -1.317338 H        1 UNL1     0.0615
     65 H         8.262722   4.607315   -1.508618 H        1 UNL1     0.0622
     66 H         -1.426091   5.329558   0.513882 H        1 UNL1     0.0645
     67 H         -1.861862   3.630119   -0.678686 H        1 UNL1     0.0362
     68 H         -2.529015   2.49876   1.079411 H        1 UNL1     0.0741
     69 H         -1.177716   0.521687   2.21588 H        1 UNL1     0.0359
     70 H         0.932724   0.728379   2.924987 H        1 UNL1     0.0600
     71 H         1.810599   -0.403234   1.29603 H        1 UNL1     0.0348
     72 H         3.368119   1.469053   1.269254 H        1 UNL1     0.0602
     73 H         0.75736   5.408594   -0.461438 H        1 UNL1     0.0628
     74 H         1.559678   5.440081   2.507723 H        1 UNL1     0.1022
     75 H         10.874622   2.244117   -3.586577 H        1 UNL1     0.0279
     76 H         10.79583   3.502282   -4.754529 H        1 UNL1     0.0279
     77 H         11.889288   3.599855   -3.315735 H        1 UNL1     0.0279
     78 H         9.022938   4.800274   -5.102723 H        1 UNL1     0.1553
     79 H         7.74769   3.328681   -4.736143 H        1 UNL1     0.1484
     80 H         3.997575   2.724593   -4.842018 H        1 UNL1     0.0317
     81 H         4.727964   4.251825   -5.315327 H        1 UNL1     0.0317
     82 H         6.631124   3.061272   -6.435267 H        1 UNL1     0.0428
     83 H         5.0701   2.583888   -7.065355 H        1 UNL1     0.0428
     84 H         6.873245   -0.048525   -4.250713 H        1 UNL1     0.0428
     85 H         7.779191   1.362116   -4.673181 H        1 UNL1     0.0428
     86 H         6.504603   1.436774   -2.529655 H        1 UNL1     0.0317
     87 H         5.0023   1.208102   -3.299813 H        1 UNL1     0.0317
     88 H         7.203327   0.872937   -7.440321 H        1 UNL1     0.0429
     89 H         6.847573   -0.613535   -6.557102 H        1 UNL1     0.0429
     90 H         4.300637   0.27373   -7.361159 H        1 UNL1     0.0308
     91 H         6.347146   1.025819   -9.515835 H        1 UNL1     0.0233
     92 H         4.639616   0.673024   -9.883764 H        1 UNL1     0.0233
     93 H         5.060079   2.037512   -8.870854 H        1 UNL1     0.0233
     94 H         4.672815   -1.502912   -9.225027 H        1 UNL1     0.0233
     95 H         6.229071   -1.758181   -8.420519 H        1 UNL1     0.0233
     96 H         4.713854   -1.993147   -7.518909 H        1 UNL1     0.0233
     97 H         4.084767   10.52488   -0.202496 H        1 UNL1     0.0280
     98 H         5.719436   11.11051   -0.351099 H        1 UNL1     0.0280
     99 H         4.625758   11.164406   -1.765559 H        1 UNL1     0.0280
     100 H         6.663633   10.747226   -3.01383 H        1 UNL1     0.2922
     101 H         4.697898   0.994419   2.431782 H        1 UNL1     0.0236
     102 H         6.132015   2.094034   2.417111 H        1 UNL1     0.0236
     103 H         6.249601   0.447628   1.877651 H        1 UNL1     0.0236
     104 H         4.25454   -0.582107   1.273343 H        1 UNL1     0.2098
     105 H         0.701097   1.280918   -0.937284 H        1 UNL1     0.0234
     106 H         1.282835   -0.405909   -1.02268 H        1 UNL1     0.0234
     107 H         0.0   -0.0   0.0 H        1 UNL1     0.0234
     108 H         1.265833   3.245996   1.707881 H        1 UNL1     0.2098
     109 H         1.073121   3.059683   -0.863894 H        1 UNL1     0.0234
     110 H         -0.18751   2.324341   -1.904511 H        1 UNL1     0.0234
     111 H         0.050344   4.036709   -1.896512 H        1 UNL1     0.0234
     112 H         -3.635392   -1.570833   1.342095 H        1 UNL1     0.0342
     113 H         -3.446799   0.090395   2.00767 H        1 UNL1     0.0342
     114 H         -4.467112   -0.195396   0.595135 H        1 UNL1     0.0342
     115 H         -2.647095   2.053492   3.26697 H        1 UNL1     0.0234
     116 H         -1.190859   1.837476   4.243444 H        1 UNL1     0.0234
     117 H         -1.495167   3.30485   3.290628 H        1 UNL1     0.0234
     118 H         0.825265   7.294649   -0.767702 H        1 UNL1     0.0309
     119 H         2.036642   8.070053   -1.835116 H        1 UNL1     0.0309
     120 H         1.724573   6.3493   -1.896581 H        1 UNL1     0.0309
     121 H         -0.717413   5.438233   3.964215 H        1 UNL1     0.0524
     122 H         -0.611341   6.471799   2.53336 H        1 UNL1     0.0524
     123 H         -2.172565   5.736233   2.975248 H        1 UNL1     0.0524
@<TRIPOS>BOND
     1     1     2    1
     2     1    42    1
     3     2     3    2
     4     3     4    1
     5     4     5    2
     6     5     7    1
     7     6    75    1
     8     6    76    1
     9     6    77    1
    10     7     9   am
    11     9    10    1
    12    10    11    2
    13    10    43    1
    14    11    14    1
    15    11    15    1
    16    12    13   ar
    17    12    27   ar
    18    12    43    1
    19    13    14    1
    20    13    30   ar
    21    14    17    2
    22    15    16    1
    23    16    17    1
    24    16    18    1
    25    16    22    1
    26    18    19    1
    27    19    20    1
    28    20    21    1
    29    21    22    1
    30    23    24    1
    31    23    88    1
    32    23    89    1
    33    24    25    1
    34    24    26    1
    35    24    90    1
    36    25    91    1
    37    25    92    1
    38    25    93    1
    39    26    94    1
    40    26    95    1
    41    26    96    1
    42    27    28   ar
    43    28    29   ar
    44    29    30   ar
    45    29    31    1
    46    30    33    1
    47    31    32    1
    48    32    33    1
    49    32    35    1
    50    34    97    1
    51    34    98    1
    52    34    99    1
    53    35    61    1
    54    36    37    1
    55    36    60    1
    56    37    38    1
    57    38    39    1
    58    39    40    1
    59    40    41    1
    60    41    42    1
    61    45   100    1
    62    47   101    1
    63    47   102    1
    64    47   103    1
    65    48   104    1
    66    49   105    1
    67    49   106    1
    68    49   107    1
    69    50   108    1
    70    51    59    1
    71    52   109    1
    72    52   110    1
    73    52   111    1
    74    53    54    1
    75    54    55    2
    76    54    56    1
    77    56   112    1
    78    56   113    1
    79    56   114    1
    80    57   115    1
    81    57   116    1
    82    57   117    1
    83    58   118    1
    84    58   119    1
    85    58   120    1
    86    59   121    1
    87    59   122    1
    88    59   123    1
    89    60    61    2
    90     1    47    1
    91     1    62    1
    92     2    63    1
    93     3    64    1
    94     4    65    1
    95     5     6    1
    96     7     8    2
    97     9    78    1
    98    15    79    1
    99    18    80    1
   100    18    81    1
   101    19    82    1
   102    19    83    1
   103    20    23    1
   104    21    84    1
   105    21    85    1
   106    22    86    1
   107    22    87    1
   108    27    45    1
   109    28    34    1
   110    32    58    1
   111    33    46    2
   112    36    51    1
   113    36    66    1
   114    37    52    1
   115    37    67    1
   116    38    53    1
   117    38    68    1
   118    42    48    1
   119    42    72    1
   120    43    44    2
   121    60    73    1
   122    61    74    1
   123    39    69    1
   124    39    57    1
   125    40    70    1
   126    40    50    1
   127    41    71    1
   128    41    49    1
