@<TRIPOS>MOLECULE
*****
 123 128 0 0 0
SMALL
GASTEIGER

@<TRIPOS>ATOM
     1 C         4.042079   2.522403   -2.703856 C.3        1 UNL1     0.0009
     2 C         5.510547   2.309728   -3.815345 C.2        1 UNL1     -0.0787
     3 C         6.944681   2.248814   -4.004009 C.2        1 UNL1     -0.0649
     4 C         7.792821   1.864362   -5.417944 C.2        1 UNL1     -0.0542
     5 C         9.032191   1.425114   -5.945298 C.2        1 UNL1     0.0115
     6 C         10.519694   1.147351   -5.593863 C.3        1 UNL1     -0.0348
     7 C         9.076028   0.834552   -7.437378 C.2        1 UNL1     0.2441
     8 O         9.482096   1.477307   -8.395762 O.2        1 UNL1     -0.2702
     9 N         8.863837   -0.552111   -7.528442 N.am        1 UNL1     -0.2772
     10 C         7.51961   -0.826273   -7.634319 C.2        1 UNL1     0.1049
     11 C         6.8421   -0.86315   -6.501252 C.2        1 UNL1     0.0801
     12 C         5.456258   -0.179218   -8.89179 C.ar        1 UNL1     0.0753
     13 C         4.821211   -0.030242   -7.617769 C.ar        1 UNL1     0.0305
     14 C         5.456885   -0.495059   -6.38695 C.2        1 UNL1     0.0924
     15 N         7.282696   -0.88356   -5.231612 N.pl3        1 UNL1     -0.3170
     16 C         6.14633   -1.098247   -4.375552 C.3        1 UNL1     0.1275
     17 N         4.980073   -0.528794   -5.145806 N.2        1 UNL1     -0.2557
     18 C         5.911991   -2.604138   -4.304296 C.3        1 UNL1     0.0016
     19 C         7.1916   -3.273482   -3.828725 C.3        1 UNL1     0.0026
     20 N         7.543076   -2.735492   -2.521798 N.3        1 UNL1     -0.3018
     21 C         7.728694   -1.283642   -2.476548 C.3        1 UNL1     0.0026
     22 C         6.429893   -0.631549   -2.953816 C.3        1 UNL1     0.0016
     23 C         8.567111   -3.510358   -1.849802 C.3        1 UNL1     0.0012
     24 C         8.616094   -3.156764   -0.355035 C.3        1 UNL1     -0.0339
     25 C         10.050011   -3.234169   0.194463 C.3        1 UNL1     -0.0615
     26 C         8.001896   -1.787121   -0.12348 C.3        1 UNL1     -0.0615
     27 C         4.795076   0.155044   -10.071292 C.ar        1 UNL1     0.1347
     28 C         3.488494   0.608601   -10.105648 C.ar        1 UNL1     0.0342
     29 C         2.900174   0.793758   -8.836491 C.ar        1 UNL1     0.1435
     30 C         3.562905   0.497445   -7.644767 C.ar        1 UNL1     0.0774
     31 O         1.597058   1.124949   -8.705312 O.3        1 UNL1     -0.4436
     32 C         1.264281   0.76088   -7.357133 C.3        1 UNL1     0.3143
     33 C         2.583047   0.75725   -6.610772 C.2        1 UNL1     0.2504
     34 C         2.635055   0.746351   -11.335593 C.3        1 UNL1     -0.0327
     35 O         0.478095   1.826537   -6.80983 O.2        1 UNL1     -0.4528
     36 C         -1.838969   0.213384   -4.272698 C.3        1 UNL1     0.0854
     37 C         -1.479821   -0.659172   -3.008901 C.3        1 UNL1     0.0236
     38 C         -2.091411   -0.127952   -1.624883 C.3        1 UNL1     0.1131
     39 C         -1.891276   1.384596   -1.207256 C.3        1 UNL1     0.0200
     40 C         -0.409699   2.12588   -1.401856 C.3        1 UNL1     0.0661
     41 C         1.084672   1.510394   -0.886452 C.3        1 UNL1     0.0091
     42 C         2.760747   1.694934   -1.609029 C.3        1 UNL1     0.0661
     43 C         6.810291   -0.78581   -8.921791 C.2        1 UNL1     0.2131
     44 O         7.287504   -1.318433   -9.907346 O.2        1 UNL1     -0.2851
     45 O         5.500356   0.023431   -11.265736 O.3        1 UNL1     -0.5056
     46 O         2.782215   0.948057   -5.431883 O.2        1 UNL1     -0.2836
     47 C         3.872918   4.015395   -2.313549 C.3        1 UNL1     -0.0566
     48 O         3.404704   2.033897   -0.316923 O.3        1 UNL1     -0.3909
     49 C         0.915035   0.049696   -0.532786 C.3        1 UNL1     -0.0577
     50 O         -0.286951   2.667021   -2.701787 O.3        1 UNL1     -0.3910
     51 O         -2.49678   1.432843   -4.01263 O.3        1 UNL1     -0.3753
     52 C         -0.038378   -1.257394   -3.105458 C.3        1 UNL1     -0.0564
     53 O         -2.038488   -1.139396   -0.517406 O.3        1 UNL1     -0.4608
     54 C         -1.784749   -0.862805   0.800564 C.2        1 UNL1     0.3042
     55 O         -2.488849   -1.139767   1.770807 O.2        1 UNL1     -0.2512
     56 C         -0.458806   -0.195179   1.030488 C.3        1 UNL1     0.0332
     57 C         -3.193754   2.189165   -1.670283 C.3        1 UNL1     -0.0567
     58 C         0.720502   -0.685613   -7.416207 C.3        1 UNL1     0.0210
     59 C         -3.320505   1.908266   -5.076263 C.3        1 UNL1     0.0372
     60 C         -0.691416   0.526929   -5.16711 C.2        1 UNL1     -0.0208
     61 C         -0.336495   1.673715   -5.748192 C.2        1 UNL1     0.0882
     62 H         3.387905   2.348459   -3.566707 H        1 UNL1     0.0365
     63 H         5.020417   2.23619   -4.788399 H        1 UNL1     0.0576
     64 H         7.635564   2.292909   -3.159116 H        1 UNL1     0.0615
     65 H         7.033209   1.924733   -6.202054 H        1 UNL1     0.0622
     66 H         -2.516159   -0.420473   -4.862346 H        1 UNL1     0.0645
     67 H         -2.05002   -1.592737   -3.15685 H        1 UNL1     0.0362
     68 H         -3.164655   -0.229778   -1.846924 H        1 UNL1     0.0741
     69 H         -2.065202   1.477892   -0.143558 H        1 UNL1     0.0359
     70 H         -0.550102   3.007384   -0.747411 H        1 UNL1     0.0600
     71 H         1.147172   1.971262   0.11886 H        1 UNL1     0.0348
     72 H         2.157193   2.511895   -2.03047 H        1 UNL1     0.0602
     73 H         -0.190014   -0.373905   -5.420767 H        1 UNL1     0.0628
     74 H         -0.760442   2.647494   -5.500679 H        1 UNL1     0.1022
     75 H         10.616138   0.81448   -4.532294 H        1 UNL1     0.0279
     76 H         11.003942   0.339346   -6.137646 H        1 UNL1     0.0279
     77 H         11.133678   2.059886   -5.591561 H        1 UNL1     0.0279
     78 H         9.203472   -1.00634   -6.683219 H        1 UNL1     0.1553
     79 H         8.21667   -1.141068   -4.970241 H        1 UNL1     0.1484
     80 H         5.077603   -2.804198   -3.62126 H        1 UNL1     0.0317
     81 H         5.618778   -3.00121   -5.282055 H        1 UNL1     0.0317
     82 H         8.013517   -3.13726   -4.546923 H        1 UNL1     0.0428
     83 H         7.002898   -4.346649   -3.786837 H        1 UNL1     0.0428
     84 H         7.913026   -0.896174   -1.469721 H        1 UNL1     0.0428
     85 H         8.610458   -0.966196   -3.050166 H        1 UNL1     0.0428
     86 H         6.554446   0.421515   -2.781974 H        1 UNL1     0.0317
     87 H         5.605851   -0.902522   -2.28253 H        1 UNL1     0.0317
     88 H         8.311407   -4.57338   -1.949278 H        1 UNL1     0.0429
     89 H         9.547828   -3.3699   -2.322284 H        1 UNL1     0.0429
     90 H         7.990034   -3.863831   0.202026 H        1 UNL1     0.0308
     91 H         10.759278   -2.736074   -0.473327 H        1 UNL1     0.0233
     92 H         10.109151   -2.777745   1.185315 H        1 UNL1     0.0233
     93 H         10.396666   -4.26793   0.312798 H        1 UNL1     0.0233
     94 H         8.365814   -1.364475   0.819266 H        1 UNL1     0.0233
     95 H         8.289107   -1.107525   -0.930712 H        1 UNL1     0.0233
     96 H         6.910537   -1.841484   -0.079336 H        1 UNL1     0.0233
     97 H         1.728186   0.152525   -11.270869 H        1 UNL1     0.0280
     98 H         2.305809   1.781136   -11.497068 H        1 UNL1     0.0280
     99 H         3.204094   0.412987   -12.218859 H        1 UNL1     0.0280
     100 H         5.453669   -0.831726   -11.655799 H        1 UNL1     0.2922
     101 H         4.845059   4.507937   -2.313927 H        1 UNL1     0.0236
     102 H         3.344147   4.154847   -1.371245 H        1 UNL1     0.0236
     103 H         3.276686   4.57241   -3.055462 H        1 UNL1     0.0236
     104 H         2.735038   1.919091   0.385457 H        1 UNL1     0.2098
     105 H         0.837191   -0.61391   -1.390329 H        1 UNL1     0.0234
     106 H         1.647034   -0.334893   0.177282 H        1 UNL1     0.0234
     107 H         0.0   0.0   0.0 H        1 UNL1     0.0234
     108 H         0.656311   2.879051   -2.839876 H        1 UNL1     0.2098
     109 H         0.115194   -1.824755   -4.034021 H        1 UNL1     0.0234
     110 H         0.74865   -0.502541   -3.002864 H        1 UNL1     0.0234
     111 H         0.162195   -1.963766   -2.288908 H        1 UNL1     0.0234
     112 H         -0.308085   0.597441   0.291311 H        1 UNL1     0.0342
     113 H         -0.365832   0.192719   2.043767 H        1 UNL1     0.0342
     114 H         0.331992   -0.944317   0.886977 H        1 UNL1     0.0342
     115 H         -3.440006   3.002916   -0.974326 H        1 UNL1     0.0234
     116 H         -3.115576   2.623545   -2.668908 H        1 UNL1     0.0234
     117 H         -4.118755   1.588481   -1.631642 H        1 UNL1     0.0234
     118 H         -0.375935   -0.721768   -7.291606 H        1 UNL1     0.0309
     119 H         0.99376   -1.210038   -8.337354 H        1 UNL1     0.0309
     120 H         1.0889   -1.307137   -6.59274 H        1 UNL1     0.0309
     121 H         -3.390338   2.991442   -4.980296 H        1 UNL1     0.0524
     122 H         -2.890637   1.689892   -6.068011 H        1 UNL1     0.0524
     123 H         -4.308989   1.461983   -5.014408 H        1 UNL1     0.0524
@<TRIPOS>BOND
     1     1     2    1
     2     1    42    1
     3     2     3    2
     4     3     4    1
     5     4     5    2
     6     5     7    1
     7     6    75    1
     8     6    76    1
     9     6    77    1
    10     7     9   am
    11     9    10    1
    12    10    11    2
    13    10    43    1
    14    11    14    1
    15    11    15    1
    16    12    13   ar
    17    12    27   ar
    18    12    43    1
    19    13    14    1
    20    13    30   ar
    21    14    17    2
    22    15    16    1
    23    16    17    1
    24    16    18    1
    25    16    22    1
    26    18    19    1
    27    19    20    1
    28    20    21    1
    29    21    22    1
    30    23    24    1
    31    23    88    1
    32    23    89    1
    33    24    25    1
    34    24    26    1
    35    24    90    1
    36    25    91    1
    37    25    92    1
    38    25    93    1
    39    26    94    1
    40    26    95    1
    41    26    96    1
    42    27    28   ar
    43    28    29   ar
    44    29    30   ar
    45    29    31    1
    46    30    33    1
    47    31    32    1
    48    32    33    1
    49    32    35    1
    50    34    97    1
    51    34    98    1
    52    34    99    1
    53    35    61    1
    54    36    37    1
    55    36    60    1
    56    37    38    1
    57    38    39    1
    58    39    40    1
    59    40    41    1
    60    41    42    1
    61    45   100    1
    62    47   101    1
    63    47   102    1
    64    47   103    1
    65    48   104    1
    66    49   105    1
    67    49   106    1
    68    49   107    1
    69    50   108    1
    70    51    59    1
    71    52   109    1
    72    52   110    1
    73    52   111    1
    74    53    54    1
    75    54    55    2
    76    54    56    1
    77    56   112    1
    78    56   113    1
    79    56   114    1
    80    57   115    1
    81    57   116    1
    82    57   117    1
    83    58   118    1
    84    58   119    1
    85    58   120    1
    86    59   121    1
    87    59   122    1
    88    59   123    1
    89    60    61    2
    90     1    47    1
    91     1    62    1
    92     2    63    1
    93     3    64    1
    94     4    65    1
    95     5     6    1
    96     7     8    2
    97     9    78    1
    98    15    79    1
    99    18    80    1
   100    18    81    1
   101    19    82    1
   102    19    83    1
   103    20    23    1
   104    21    84    1
   105    21    85    1
   106    22    86    1
   107    22    87    1
   108    27    45    1
   109    28    34    1
   110    32    58    1
   111    33    46    2
   112    36    51    1
   113    36    66    1
   114    37    52    1
   115    37    67    1
   116    38    53    1
   117    38    68    1
   118    42    48    1
   119    42    72    1
   120    43    44    2
   121    60    73    1
   122    61    74    1
   123    39    69    1
   124    39    57    1
   125    40    70    1
   126    40    50    1
   127    41    71    1
   128    41    49    1
