@<TRIPOS>MOLECULE
*****
 123 128 0 0 0
SMALL
GASTEIGER

@<TRIPOS>ATOM
     1 C         3.562352   2.371839   2.889045 C.3        1 UNL1     0.0009
     2 C         5.265419   3.078098   2.694628 C.2        1 UNL1     -0.0787
     3 C         6.677097   3.059417   3.01535 C.2        1 UNL1     -0.0649
     4 C         7.908222   4.011774   2.349238 C.2        1 UNL1     -0.0542
     5 C         9.305177   4.125427   2.142655 C.2        1 UNL1     0.0115
     6 C         10.68549   3.52693   2.529773 C.3        1 UNL1     -0.0348
     7 C         9.844272   5.132029   1.014329 C.2        1 UNL1     0.2441
     8 O         10.312963   6.232031   1.272883 O.2        1 UNL1     -0.2702
     9 N         9.9836   4.563866   -0.263923 N.am        1 UNL1     -0.2772
     10 C         8.804919   4.667008   -0.966344 C.2        1 UNL1     0.1049
     11 C         7.899291   3.736932   -0.723403 C.2        1 UNL1     0.0801
     12 C         7.017528   6.292784   -1.613968 C.ar        1 UNL1     0.0753
     13 C         6.075151   5.325479   -1.13978 C.ar        1 UNL1     0.0305
     14 C         6.481531   3.963421   -0.801103 C.2        1 UNL1     0.0924
     15 N         8.010681   2.576691   -0.054106 N.pl3        1 UNL1     -0.3170
     16 C         6.780521   1.850443   -0.225932 C.3        1 UNL1     0.1275
     17 N         5.738103   2.919505   -0.445461 N.2        1 UNL1     -0.2557
     18 C         6.886792   1.085986   -1.541992 C.3        1 UNL1     0.0016
     19 C         8.13054   0.21263   -1.498047 C.3        1 UNL1     0.0026
     20 N         8.021118   -0.700703   -0.368943 N.3        1 UNL1     -0.3018
     21 C         7.852964   -0.058394   0.936252 C.3        1 UNL1     0.0026
     22 C         6.595484   0.810151   0.870928 C.3        1 UNL1     0.0016
     23 C         9.000345   -1.768432   -0.410339 C.3        1 UNL1     0.0012
     24 C         8.676468   -2.752586   -1.545373 C.3        1 UNL1     -0.0339
     25 C         9.572241   -2.511388   -2.771534 C.3        1 UNL1     -0.0615
     26 C         8.788819   -4.181652   -1.043449 C.3        1 UNL1     -0.0615
     27 C         6.604495   7.549897   -2.048929 C.ar        1 UNL1     0.1347
     28 C         5.277441   7.938461   -2.093605 C.ar        1 UNL1     0.0342
     29 C         4.372016   6.987872   -1.576159 C.ar        1 UNL1     0.1435
     30 C         4.774858   5.738309   -1.103369 C.ar        1 UNL1     0.0774
     31 O         3.035987   7.173096   -1.651808 O.3        1 UNL1     -0.4436
     32 C         2.477884   5.861182   -1.483657 C.3        1 UNL1     0.3143
     33 C         3.540434   5.069966   -0.748008 C.2        1 UNL1     0.2504
     34 C         4.740393   9.165002   -2.777181 C.3        1 UNL1     -0.0327
     35 O         1.359975   5.984431   -0.595772 O.2        1 UNL1     -0.4528
     36 C         -1.071864   3.247794   -1.598303 C.3        1 UNL1     0.0854
     37 C         -0.840892   1.689619   -1.677449 C.3        1 UNL1     0.0236
     38 C         -1.875337   0.808901   -0.82539 C.3        1 UNL1     0.1131
     39 C         -2.134203   1.155391   0.696189 C.3        1 UNL1     0.0200
     40 C         -0.859874   1.52438   1.707312 C.3        1 UNL1     0.0661
     41 C         0.564317   0.619489   1.881855 C.3        1 UNL1     0.0091
     42 C         2.277685   1.157523   2.256408 C.3        1 UNL1     0.0661
     43 C         8.439963   5.881139   -1.711359 C.2        1 UNL1     0.2131
     44 O         9.251205   6.42927   -2.435358 O.2        1 UNL1     -0.2851
     45 O         7.589762   8.448937   -2.451935 O.3        1 UNL1     -0.5056
     46 O         3.397982   4.116427   -0.015666 O.2        1 UNL1     -0.2836
     47 C         2.966483   2.77207   4.265539 C.3        1 UNL1     -0.0566
     48 O         2.493102   0.129666   3.303413 O.3        1 UNL1     -0.3909
     49 C         0.652597   -0.375457   0.74617 C.3        1 UNL1     -0.0577
     50 O         -0.55199   2.902356   1.643187 O.3        1 UNL1     -0.3910
     51 O         -2.034129   3.681246   -0.663638 O.3        1 UNL1     -0.3753
     52 C         0.678203   1.330516   -1.76881 C.3        1 UNL1     -0.0564
     53 O         -1.863258   -0.647825   -1.186126 O.3        1 UNL1     -0.4608
     54 C         -2.007698   -1.686607   -0.304084 C.2        1 UNL1     0.3042
     55 O         -1.123003   -2.416048   0.142088 O.2        1 UNL1     -0.2512
     56 C         -3.417585   -1.873036   0.179833 C.3        1 UNL1     0.0332
     57 C         -3.433492   2.085622   0.7647 C.3        1 UNL1     -0.0567
     58 C         2.310553   5.271734   -2.903545 C.3        1 UNL1     0.0210
     59 C         -3.2526   4.156184   -1.234276 C.3        1 UNL1     0.0372
     60 C         0.155548   4.053939   -1.355921 C.2        1 UNL1     -0.0208
     61 C         0.369014   5.075052   -0.524954 C.2        1 UNL1     0.0882
     62 H         3.195217   3.107495   2.163281 H        1 UNL1     0.0365
     63 H         5.056736   3.940507   2.058097 H        1 UNL1     0.0576
     64 H         7.112905   2.272709   3.635244 H        1 UNL1     0.0615
     65 H         7.368953   4.803476   1.822094 H        1 UNL1     0.0622
     66 H         -1.421892   3.52629   -2.602279 H        1 UNL1     0.0645
     67 H         -1.128864   1.428046   -2.710508 H        1 UNL1     0.0362
     68 H         -2.809764   1.067305   -1.346538 H        1 UNL1     0.0741
     69 H         -2.578046   0.294695   1.178491 H        1 UNL1     0.0359
     70 H         -1.352952   1.396564   2.68996 H        1 UNL1     0.0600
     71 H         0.273447   -0.038132   2.724402 H        1 UNL1     0.0348
     72 H         1.624294   1.982942   2.574338 H        1 UNL1     0.0602
     73 H         0.895926   3.785568   -2.068007 H        1 UNL1     0.0628
     74 H         -0.313544   5.37573   0.270624 H        1 UNL1     0.1022
     75 H         10.75834   3.392945   3.636017 H        1 UNL1     0.0279
     76 H         10.902652   2.528076   2.158019 H        1 UNL1     0.0279
     77 H         11.517944   4.220284   2.340084 H        1 UNL1     0.0279
     78 H         10.202223   3.573629   -0.176108 H        1 UNL1     0.1553
     79 H         8.886469   2.125375   0.13627 H        1 UNL1     0.1484
     80 H         5.98   0.484903   -1.680535 H        1 UNL1     0.0317
     81 H         6.93889   1.775133   -2.391706 H        1 UNL1     0.0317
     82 H         9.048726   0.814758   -1.432553 H        1 UNL1     0.0428
     83 H         8.187978   -0.322111   -2.446627 H        1 UNL1     0.0428
     84 H         7.693361   -0.765811   1.755947 H        1 UNL1     0.0428
     85 H         8.750965   0.499259   1.236143 H        1 UNL1     0.0428
     86 H         6.430224   1.156301   1.87435 H        1 UNL1     0.0317
     87 H         5.717523   0.183912   0.670661 H        1 UNL1     0.0317
     88 H         9.984316   -1.32208   -0.604931 H        1 UNL1     0.0429
     89 H         9.067199   -2.285845   0.555366 H        1 UNL1     0.0429
     90 H         7.630191   -2.622178   -1.846221 H        1 UNL1     0.0308
     91 H         10.620678   -2.394489   -2.481335 H        1 UNL1     0.0233
     92 H         9.48651   -3.33769   -3.4811 H        1 UNL1     0.0233
     93 H         9.291592   -1.605265   -3.322001 H        1 UNL1     0.0233
     94 H         8.946693   -4.865916   -1.8841 H        1 UNL1     0.0233
     95 H         9.644   -4.274335   -0.368144 H        1 UNL1     0.0233
     96 H         7.884247   -4.490184   -0.511917 H        1 UNL1     0.0233
     97 H         4.005646   8.918726   -3.537921 H        1 UNL1     0.0280
     98 H         4.232559   9.840449   -2.076372 H        1 UNL1     0.0280
     99 H         5.567749   9.710706   -3.259658 H        1 UNL1     0.0280
     100 H         8.304972   8.542845   -1.847552 H        1 UNL1     0.2922
     101 H         2.234477   3.568273   4.131809 H        1 UNL1     0.0236
     102 H         3.725874   3.034052   5.001524 H        1 UNL1     0.0236
     103 H         2.40036   1.946159   4.727672 H        1 UNL1     0.0236
     104 H         1.657452   0.036179   3.801328 H        1 UNL1     0.2098
     105 H         1.642431   -0.468334   0.306383 H        1 UNL1     0.0234
     106 H         0.245335   -1.361002   0.971487 H        1 UNL1     0.0234
     107 H         0.0   0.0   0.0 H        1 UNL1     0.0234
     108 H         0.322236   3.024034   2.06115 H        1 UNL1     0.2098
     109 H         1.153201   1.756278   -2.663693 H        1 UNL1     0.0234
     110 H         1.244293   1.624631   -0.878427 H        1 UNL1     0.0234
     111 H         0.83423   0.24565   -1.837125 H        1 UNL1     0.0234
     112 H         -3.676616   -2.93613   0.170892 H        1 UNL1     0.0342
     113 H         -3.571938   -1.441583   1.167693 H        1 UNL1     0.0342
     114 H         -4.090957   -1.356455   -0.517935 H        1 UNL1     0.0342
     115 H         -4.012879   1.911029   1.68177 H        1 UNL1     0.0234
     116 H         -3.217521   3.154522   0.711247 H        1 UNL1     0.0234
     117 H         -4.18405   1.850694   -0.009518 H        1 UNL1     0.0234
     118 H         1.24886   5.184136   -3.193615 H        1 UNL1     0.0309
     119 H         2.845656   5.84046   -3.670629 H        1 UNL1     0.0309
     120 H         2.678305   4.242459   -2.977417 H        1 UNL1     0.0309
     121 H         -3.696893   4.856268   -0.527281 H        1 UNL1     0.0524
     122 H         -3.088052   4.698955   -2.179983 H        1 UNL1     0.0524
     123 H         -3.93035   3.327093   -1.416916 H        1 UNL1     0.0524
@<TRIPOS>BOND
     1     1     2    1
     2     1    42    1
     3     2     3    2
     4     3     4    1
     5     4     5    2
     6     5     7    1
     7     6    75    1
     8     6    76    1
     9     6    77    1
    10     7     9   am
    11     9    10    1
    12    10    11    2
    13    10    43    1
    14    11    14    1
    15    11    15    1
    16    12    13   ar
    17    12    27   ar
    18    12    43    1
    19    13    14    1
    20    13    30   ar
    21    14    17    2
    22    15    16    1
    23    16    17    1
    24    16    18    1
    25    16    22    1
    26    18    19    1
    27    19    20    1
    28    20    21    1
    29    21    22    1
    30    23    24    1
    31    23    88    1
    32    23    89    1
    33    24    25    1
    34    24    26    1
    35    24    90    1
    36    25    91    1
    37    25    92    1
    38    25    93    1
    39    26    94    1
    40    26    95    1
    41    26    96    1
    42    27    28   ar
    43    28    29   ar
    44    29    30   ar
    45    29    31    1
    46    30    33    1
    47    31    32    1
    48    32    33    1
    49    32    35    1
    50    34    97    1
    51    34    98    1
    52    34    99    1
    53    35    61    1
    54    36    37    1
    55    36    60    1
    56    37    38    1
    57    38    39    1
    58    39    40    1
    59    40    41    1
    60    41    42    1
    61    45   100    1
    62    47   101    1
    63    47   102    1
    64    47   103    1
    65    48   104    1
    66    49   105    1
    67    49   106    1
    68    49   107    1
    69    50   108    1
    70    51    59    1
    71    52   109    1
    72    52   110    1
    73    52   111    1
    74    53    54    1
    75    54    55    2
    76    54    56    1
    77    56   112    1
    78    56   113    1
    79    56   114    1
    80    57   115    1
    81    57   116    1
    82    57   117    1
    83    58   118    1
    84    58   119    1
    85    58   120    1
    86    59   121    1
    87    59   122    1
    88    59   123    1
    89    60    61    2
    90     1    47    1
    91     1    62    1
    92     2    63    1
    93     3    64    1
    94     4    65    1
    95     5     6    1
    96     7     8    2
    97     9    78    1
    98    15    79    1
    99    18    80    1
   100    18    81    1
   101    19    82    1
   102    19    83    1
   103    20    23    1
   104    21    84    1
   105    21    85    1
   106    22    86    1
   107    22    87    1
   108    27    45    1
   109    28    34    1
   110    32    58    1
   111    33    46    2
   112    36    51    1
   113    36    66    1
   114    37    52    1
   115    37    67    1
   116    38    53    1
   117    38    68    1
   118    42    48    1
   119    42    72    1
   120    43    44    2
   121    60    73    1
   122    61    74    1
   123    39    69    1
   124    39    57    1
   125    40    70    1
   126    40    50    1
   127    41    71    1
   128    41    49    1
