@<TRIPOS>MOLECULE
*****
 123 128 0 0 0
SMALL
GASTEIGER

@<TRIPOS>ATOM
     1 C         -1.43712   4.302264   2.99915 C.3        1 UNL1     0.0009
     2 C         -1.696856   6.137521   3.03665 C.2        1 UNL1     -0.0787
     3 C         -1.206416   7.469982   3.319601 C.2        1 UNL1     -0.0649
     4 C         -1.96665   8.948441   2.99935 C.2        1 UNL1     -0.0542
     5 C         -1.771867   10.341427   2.82986 C.2        1 UNL1     0.0115
     6 C         -0.741132   11.493766   2.9816 C.3        1 UNL1     -0.0348
     7 C         -2.912721   11.202071   2.098606 C.2        1 UNL1     0.2441
     8 O         -3.705652   11.908294   2.706088 O.2        1 UNL1     -0.2702
     9 N         -2.77585   11.296023   0.702686 N.am        1 UNL1     -0.2772
     10 C         -3.4063   10.239715   0.086191 C.2        1 UNL1     0.1049
     11 C         -2.718878   9.114463   0.012155 C.2        1 UNL1     0.0801
     12 C         -5.561746   8.971281   0.036562 C.ar        1 UNL1     0.0753
     13 C         -4.774868   7.782973   0.168305 C.ar        1 UNL1     0.0305
     14 C         -3.320685   7.808721   0.027808 C.2        1 UNL1     0.0924
     15 N         -1.417661   8.879659   0.253461 N.pl3        1 UNL1     -0.3170
     16 C         -1.135261   7.524837   -0.140189 C.3        1 UNL1     0.1275
     17 N         -2.450736   6.802709   0.020373 N.2        1 UNL1     -0.2557
     18 C         -0.840956   7.540923   -1.637129 C.3        1 UNL1     0.0016
     19 C         0.292194   8.52007   -1.899492 C.3        1 UNL1     0.0026
     20 N         1.460894   8.097328   -1.140244 N.3        1 UNL1     -0.3018
     21 C         1.257873   7.991913   0.306144 C.3        1 UNL1     0.0026
     22 C         0.118549   7.000005   0.546878 C.3        1 UNL1     0.0016
     23 C         2.673746   8.779449   -1.545642 C.3        1 UNL1     0.0012
     24 C         3.677249   7.78255   -2.146416 C.3        1 UNL1     -0.0339
     25 C         3.747509   6.488106   -1.319654 C.3        1 UNL1     -0.0615
     26 C         3.326545   7.500944   -3.597101 C.3        1 UNL1     -0.0615
     27 C         -6.953626   8.920562   0.051269 C.ar        1 UNL1     0.1347
     28 C         -7.668253   7.740171   0.15145 C.ar        1 UNL1     0.0342
     29 C         -6.87283   6.588274   0.329208 C.ar        1 UNL1     0.1435
     30 C         -5.478167   6.628046   0.352768 C.ar        1 UNL1     0.0774
     31 O         -7.415101   5.350962   0.332229 O.3        1 UNL1     -0.4436
     32 C         -6.314153   4.471825   0.056718 C.3        1 UNL1     0.3143
     33 C         -5.077987   5.241825   0.475295 C.2        1 UNL1     0.2504
     34 C         -9.145663   7.581808   -0.077198 C.3        1 UNL1     -0.0327
     35 O         -6.429597   3.353322   0.944904 O.2        1 UNL1     -0.4528
     36 C         -4.904774   0.403072   -0.893309 C.3        1 UNL1     0.0854
     37 C         -3.454173   0.243683   -1.491537 C.3        1 UNL1     0.0236
     38 C         -2.647117   -1.041799   -0.973906 C.3        1 UNL1     0.1131
     39 C         -2.53464   -1.325664   0.578202 C.3        1 UNL1     0.0200
     40 C         -2.207785   -0.083731   1.642724 C.3        1 UNL1     0.0661
     41 C         -0.956308   1.051372   1.491204 C.3        1 UNL1     0.0091
     42 C         -0.875371   2.809589   2.008432 C.3        1 UNL1     0.0661
     43 C         -4.847423   10.249218   -0.20609 C.2        1 UNL1     0.2131
     44 O         -5.368949   11.226196   -0.712314 O.2        1 UNL1     -0.2851
     45 O         -7.644097   10.127607   -0.036644 O.3        1 UNL1     -0.5056
     46 O         -4.010469   4.808579   0.847528 O.2        1 UNL1     -0.2836
     47 C         -1.5088   3.71802   4.435639 C.3        1 UNL1     -0.0566
     48 O         0.455628   2.678309   2.648995 O.3        1 UNL1     -0.3909
     49 C         -0.398573   0.978339   0.087248 C.3        1 UNL1     -0.0577
     50 O         -3.400346   0.562146   2.040673 O.3        1 UNL1     -0.3910
     51 O         -5.246189   -0.491551   0.141348 O.3        1 UNL1     -0.3753
     52 C         -2.760362   1.627538   -1.711811 C.3        1 UNL1     -0.0564
     53 O         -1.437554   -1.364871   -1.801497 O.3        1 UNL1     -0.4608
     54 C         -1.355888   -1.259045   -3.165338 C.2        1 UNL1     0.3042
     55 O         -1.177637   -0.236345   -3.825754 O.2        1 UNL1     -0.2512
     56 C         -1.445753   -2.578747   -3.877396 C.3        1 UNL1     0.0332
     57 C         -3.69741   -2.353133   0.966078 C.3        1 UNL1     -0.0567
     58 C         -6.284204   4.275702   -1.47696 C.3        1 UNL1     0.0210
     59 C         -4.141057   -1.171632   0.734676 C.3        1 UNL1     0.0372
     60 C         -5.237543   1.769583   -0.406409 C.2        1 UNL1     -0.0208
     61 C         -5.839293   2.164494   0.716394 C.2        1 UNL1     0.0882
     62 H         -2.437747   4.188817   2.564884 H        1 UNL1     0.0365
     63 H         -2.742205   6.201554   2.727431 H        1 UNL1     0.0576
     64 H         -0.175883   7.645357   3.636389 H        1 UNL1     0.0615
     65 H         -2.998597   8.667114   2.772584 H        1 UNL1     0.0622
     66 H         -5.576007   0.214148   -1.742898 H        1 UNL1     0.0645
     67 H         -3.627867   -0.017729   -2.549863 H        1 UNL1     0.0362
     68 H         -3.295816   -1.837989   -1.369876 H        1 UNL1     0.0741
     69 H         -1.711646   -2.006858   0.74868 H        1 UNL1     0.0359
     70 H         -1.90087   -0.669278   2.530416 H        1 UNL1     0.0600
     71 H         -0.160652   0.539953   2.067693 H        1 UNL1     0.0348
     72 H         -1.692863   2.35964   2.590299 H        1 UNL1     0.0602
     73 H         -5.031744   2.473602   -1.174037 H        1 UNL1     0.0628
     74 H         -6.032168   1.51773   1.572977 H        1 UNL1     0.1022
     75 H         -0.769284   11.911087   4.017015 H        1 UNL1     0.0279
     76 H         0.306631   11.225888   2.865404 H        1 UNL1     0.0279
     77 H         -1.002179   12.379294   2.383775 H        1 UNL1     0.0279
     78 H         -1.79026   11.253134   0.451986 H        1 UNL1     0.1553
     79 H         -0.716604   9.597323   0.273725 H        1 UNL1     0.1484
     80 H         -0.576914   6.526785   -1.960504 H        1 UNL1     0.0317
     81 H         -1.730025   7.830317   -2.207619 H        1 UNL1     0.0317
     82 H         0.006417   9.551247   -1.644704 H        1 UNL1     0.0428
     83 H         0.484537   8.517227   -2.972826 H        1 UNL1     0.0428
     84 H         2.125668   7.596579   0.843223 H        1 UNL1     0.0428
     85 H         1.083492   8.973967   0.767099 H        1 UNL1     0.0428
     86 H         0.087233   6.847411   1.609762 H        1 UNL1     0.0317
     87 H         0.392908   6.012305   0.156657 H        1 UNL1     0.0317
     88 H         2.41004   9.516592   -2.3153 H        1 UNL1     0.0429
     89 H         3.118488   9.333281   -0.708834 H        1 UNL1     0.0429
     90 H         4.673111   8.241039   -2.162582 H        1 UNL1     0.0308
     91 H         4.405179   5.750977   -1.789988 H        1 UNL1     0.0233
     92 H         4.105577   6.694624   -0.308345 H        1 UNL1     0.0233
     93 H         2.766227   6.011825   -1.205301 H        1 UNL1     0.0233
     94 H         3.174416   8.441073   -4.138257 H        1 UNL1     0.0233
     95 H         4.145417   6.961791   -4.081585 H        1 UNL1     0.0233
     96 H         2.413932   6.903865   -3.678355 H        1 UNL1     0.0233
     97 H         -9.731518   8.175941   0.617793 H        1 UNL1     0.0280
     98 H         -9.446597   7.909721   -1.080776 H        1 UNL1     0.0280
     99 H         -9.42744   6.52372   0.049872 H        1 UNL1     0.0280
     100 H         -7.194789   10.801701   -0.515541 H        1 UNL1     0.2922
     101 H         -1.384448   2.635959   4.399087 H        1 UNL1     0.0236
     102 H         -2.411812   4.008043   4.971774 H        1 UNL1     0.0236
     103 H         -0.679281   4.073804   5.069287 H        1 UNL1     0.0236
     104 H         0.648173   1.724217   2.736213 H        1 UNL1     0.2098
     105 H         -1.139659   1.106907   -0.697655 H        1 UNL1     0.0234
     106 H         0.460919   1.623192   -0.095412 H        1 UNL1     0.0234
     107 H         0.0   0.0   0.0 H        1 UNL1     0.0234
     108 H         -3.219747   1.52181   2.054692 H        1 UNL1     0.2098
     109 H         -3.471287   2.403668   -2.027912 H        1 UNL1     0.0234
     110 H         -2.204841   1.97504   -0.834097 H        1 UNL1     0.0234
     111 H         -2.002008   1.578447   -2.504551 H        1 UNL1     0.0234
     112 H         -2.344835   -3.113948   -3.557149 H        1 UNL1     0.0342
     113 H         -1.425175   -2.46225   -4.959915 H        1 UNL1     0.0342
     114 H         -0.574074   -3.183172   -3.591022 H        1 UNL1     0.0342
     115 H         -3.30523   -3.362478   1.152101 H        1 UNL1     0.0234
     116 H         -4.275514   -2.058489   1.844162 H        1 UNL1     0.0234
     117 H         -4.405177   -2.54804   0.142052 H        1 UNL1     0.0234
     118 H         -6.460884   3.224326   -1.764014 H        1 UNL1     0.0309
     119 H         -6.997156   4.916049   -2.005976 H        1 UNL1     0.0309
     120 H         -5.301673   4.493919   -1.909534 H        1 UNL1     0.0309
     121 H         -3.250259   -0.915701   0.161672 H        1 UNL1     0.0524
     122 H         -3.966965   -0.856997   1.777142 H        1 UNL1     0.0524
     123 H         -4.304952   -2.245302   0.713133 H        1 UNL1     0.0524
@<TRIPOS>BOND
     1     1     2    1
     2     1    42    1
     3     2     3    2
     4     3     4    1
     5     4     5    2
     6     5     7    1
     7     6    75    1
     8     6    76    1
     9     6    77    1
    10     7     9   am
    11     9    10    1
    12    10    11    2
    13    10    43    1
    14    11    14    1
    15    11    15    1
    16    12    13   ar
    17    12    27   ar
    18    12    43    1
    19    13    14    1
    20    13    30   ar
    21    14    17    2
    22    15    16    1
    23    16    17    1
    24    16    18    1
    25    16    22    1
    26    18    19    1
    27    19    20    1
    28    20    21    1
    29    21    22    1
    30    23    24    1
    31    23    88    1
    32    23    89    1
    33    24    25    1
    34    24    26    1
    35    24    90    1
    36    25    91    1
    37    25    92    1
    38    25    93    1
    39    26    94    1
    40    26    95    1
    41    26    96    1
    42    27    28   ar
    43    28    29   ar
    44    29    30   ar
    45    29    31    1
    46    30    33    1
    47    31    32    1
    48    32    33    1
    49    32    35    1
    50    34    97    1
    51    34    98    1
    52    34    99    1
    53    35    61    1
    54    36    37    1
    55    36    60    1
    56    37    38    1
    57    38    39    1
    58    39    40    1
    59    40    41    1
    60    41    42    1
    61    45   100    1
    62    47   101    1
    63    47   102    1
    64    47   103    1
    65    48   104    1
    66    49   105    1
    67    49   106    1
    68    49   107    1
    69    50   108    1
    70    51    59    1
    71    52   109    1
    72    52   110    1
    73    52   111    1
    74    53    54    1
    75    54    55    2
    76    54    56    1
    77    56   112    1
    78    56   113    1
    79    56   114    1
    80    57   115    1
    81    57   116    1
    82    57   117    1
    83    58   118    1
    84    58   119    1
    85    58   120    1
    86    59   121    1
    87    59   122    1
    88    59   123    1
    89    60    61    2
    90     1    47    1
    91     1    62    1
    92     2    63    1
    93     3    64    1
    94     4    65    1
    95     5     6    1
    96     7     8    2
    97     9    78    1
    98    15    79    1
    99    18    80    1
   100    18    81    1
   101    19    82    1
   102    19    83    1
   103    20    23    1
   104    21    84    1
   105    21    85    1
   106    22    86    1
   107    22    87    1
   108    27    45    1
   109    28    34    1
   110    32    58    1
   111    33    46    2
   112    36    51    1
   113    36    66    1
   114    37    52    1
   115    37    67    1
   116    38    53    1
   117    38    68    1
   118    42    48    1
   119    42    72    1
   120    43    44    2
   121    60    73    1
   122    61    74    1
   123    39    69    1
   124    39    57    1
   125    40    70    1
   126    40    50    1
   127    41    71    1
   128    41    49    1
