@<TRIPOS>MOLECULE
*****
 123 128 0 0 0
SMALL
GASTEIGER

@<TRIPOS>ATOM
     1 C         2.315939   1.488708   -3.085654 C.3        1 UNL1     0.0009
     2 C         1.810423   2.712555   -4.383224 C.2        1 UNL1     -0.0787
     3 C         1.350098   3.002682   -5.724855 C.2        1 UNL1     -0.0649
     4 C         0.901196   4.502481   -6.369407 C.2        1 UNL1     -0.0542
     5 C         0.179917   5.154364   -7.399884 C.2        1 UNL1     0.0115
     6 C         -0.565437   4.934271   -8.744998 C.3        1 UNL1     -0.0348
     7 C         -0.216862   6.698624   -7.213295 C.2        1 UNL1     0.2441
     8 O         0.38507   7.611318   -7.762106 O.2        1 UNL1     -0.2702
     9 N         -1.457556   6.916712   -6.589383 N.am        1 UNL1     -0.2772
     10 C         -1.306721   6.95928   -5.222358 C.2        1 UNL1     0.1049
     11 C         -1.274584   5.792878   -4.603734 C.2        1 UNL1     0.0801
     12 C         0.066077   8.001947   -3.409733 C.ar        1 UNL1     0.0753
     13 C         0.245167   6.679482   -2.892409 C.ar        1 UNL1     0.0305
     14 C         -0.528837   5.54839   -3.398967 C.2        1 UNL1     0.0924
     15 N         -1.574165   4.564598   -5.05992 N.pl3        1 UNL1     -0.3170
     16 C         -1.541965   3.660402   -3.94115 C.3        1 UNL1     0.1275
     17 N         -0.565921   4.28793   -2.976127 N.2        1 UNL1     -0.2557
     18 C         -2.908245   3.728113   -3.26558 C.3        1 UNL1     0.0016
     19 C         -3.977796   3.410913   -4.298553 C.3        1 UNL1     0.0026
     20 N         -3.726117   2.082433   -4.839689 N.3        1 UNL1     -0.3018
     21 C         -2.410363   1.901347   -5.45643 C.3        1 UNL1     0.0026
     22 C         -1.351277   2.220704   -4.399907 C.3        1 UNL1     0.0016
     23 C         -4.843136   1.563874   -5.603893 C.3        1 UNL1     0.0012
     24 C         -4.658515   0.06279   -5.87669 C.3        1 UNL1     -0.0339
     25 C         -5.491501   -0.791618   -4.907062 C.3        1 UNL1     -0.0615
     26 C         -4.993494   -0.248364   -7.325052 C.3        1 UNL1     -0.0615
     27 C         0.717844   9.093761   -2.841175 C.ar        1 UNL1     0.1347
     28 C         1.538833   8.993356   -1.732145 C.ar        1 UNL1     0.0342
     29 C         1.738947   7.675162   -1.270101 C.ar        1 UNL1     0.1435
     30 C         1.121248   6.567436   -1.852005 C.ar        1 UNL1     0.0774
     31 O         2.423409   7.423237   -0.132977 O.3        1 UNL1     -0.4436
     32 C         2.017943   6.100087   0.248787 C.3        1 UNL1     0.3143
     33 C         1.535829   5.4486   -1.031582 C.2        1 UNL1     0.2504
     34 C         2.067246   10.142402   -0.919389 C.3        1 UNL1     -0.0327
     35 O         3.196337   5.394794   0.657691 O.2        1 UNL1     -0.4528
     36 C         2.054587   2.885857   3.267237 C.3        1 UNL1     0.0854
     37 C         0.972153   1.745158   3.146145 C.3        1 UNL1     0.0236
     38 C         1.493616   0.275961   3.522016 C.3        1 UNL1     0.1131
     39 C         2.818689   -0.279932   2.860628 C.3        1 UNL1     0.0200
     40 C         3.10534   -0.062872   1.231777 C.3        1 UNL1     0.0661
     41 C         2.018519   -0.410648   -0.023405 C.3        1 UNL1     0.0091
     42 C         1.782126   0.400533   -1.65175 C.3        1 UNL1     0.0661
     43 C         -0.906427   8.185094   -4.515605 C.2        1 UNL1     0.2131
     44 O         -1.436401   9.249921   -4.776388 O.2        1 UNL1     -0.2851
     45 O         0.525023   10.340204   -3.433323 O.3        1 UNL1     -0.5056
     46 O         1.518663   4.272485   -1.318484 O.2        1 UNL1     -0.2836
     47 C         3.735095   0.937044   -3.388379 C.3        1 UNL1     -0.0566
     48 O         1.760272   -0.873144   -2.410951 O.3        1 UNL1     -0.3909
     49 C         0.642605   -0.623484   0.567404 C.3        1 UNL1     -0.0577
     50 O         3.735165   1.180106   0.99503 O.3        1 UNL1     -0.3910
     51 O         3.374599   2.458533   3.517026 O.3        1 UNL1     -0.3753
     52 C         -0.010464   1.999393   1.9567 C.3        1 UNL1     -0.0564
     53 O         0.388689   -0.716012   3.739854 O.3        1 UNL1     -0.4608
     54 C         -0.305211   -0.889351   4.908779 C.2        1 UNL1     0.3042
     55 O         0.131424   -1.302633   5.982271 O.2        1 UNL1     -0.2512
     56 C         -1.741725   -0.457923   4.825045 C.3        1 UNL1     0.0332
     57 C         4.021703   0.009429   3.874138 C.3        1 UNL1     -0.0567
     58 C         0.814995   6.270208   1.205607 C.3        1 UNL1     0.0210
     59 C         4.134815   3.3225   4.36053 C.3        1 UNL1     0.0372
     60 C         2.117295   3.818747   2.109245 C.2        1 UNL1     -0.0208
     61 C         3.167611   4.301918   1.44432 C.2        1 UNL1     0.0882
     62 H         2.446609   2.318779   -2.380941 H        1 UNL1     0.0365
     63 H         2.000658   3.652769   -3.861423 H        1 UNL1     0.0576
     64 H         1.087599   2.206205   -6.424732 H        1 UNL1     0.0615
     65 H         1.275901   5.223302   -5.63763 H        1 UNL1     0.0622
     66 H         1.72395   3.490336   4.123585 H        1 UNL1     0.0645
     67 H         0.273669   1.949173   3.976241 H        1 UNL1     0.0362
     68 H         1.741218   0.434428   4.582725 H        1 UNL1     0.0741
     69 H         2.833207   -1.356882   2.962491 H        1 UNL1     0.0359
     70 H         3.905257   -0.81212   1.07743 H        1 UNL1     0.0600
     71 H         2.318273   -1.451362   -0.255823 H        1 UNL1     0.0348
     72 H         2.784938   0.694453   -1.309267 H        1 UNL1     0.0602
     73 H         1.144856   4.196537   1.91205 H        1 UNL1     0.0628
     74 H         4.186966   3.927975   1.545901 H        1 UNL1     0.1022
     75 H         -1.648304   5.185589   -8.638826 H        1 UNL1     0.0279
     76 H         -0.259474   5.563499   -9.577781 H        1 UNL1     0.0279
     77 H         -0.616232   3.87443   -9.03458 H        1 UNL1     0.0279
     78 H         -2.088359   6.147273   -6.804159 H        1 UNL1     0.1553
     79 H         -2.125727   4.394512   -5.880763 H        1 UNL1     0.1484
     80 H         -2.931234   3.014487   -2.433129 H        1 UNL1     0.0317
     81 H         -3.082436   4.719401   -2.833542 H        1 UNL1     0.0317
     82 H         -4.007472   4.165132   -5.098669 H        1 UNL1     0.0428
     83 H         -4.943993   3.46653   -3.796137 H        1 UNL1     0.0428
     84 H         -2.216448   0.874855   -5.782808 H        1 UNL1     0.0428
     85 H         -2.303051   2.49755   -6.373132 H        1 UNL1     0.0428
     86 H         -0.410334   1.950705   -4.842303 H        1 UNL1     0.0317
     87 H         -1.443158   1.5267   -3.555506 H        1 UNL1     0.0317
     88 H         -5.756322   1.701474   -5.010216 H        1 UNL1     0.0429
     89 H         -4.980158   2.122337   -6.538836 H        1 UNL1     0.0429
     90 H         -3.600851   -0.197651   -5.751268 H        1 UNL1     0.0308
     91 H         -5.408876   -1.856611   -5.14384 H        1 UNL1     0.0233
     92 H         -5.171659   -0.627739   -3.875339 H        1 UNL1     0.0233
     93 H         -6.558538   -0.540255   -4.940006 H        1 UNL1     0.0233
     94 H         -5.491352   -1.221403   -7.396938 H        1 UNL1     0.0233
     95 H         -5.675064   0.509184   -7.721972 H        1 UNL1     0.0233
     96 H         -4.093728   -0.273835   -7.946133 H        1 UNL1     0.0233
     97 H         2.535134   10.899993   -1.540973 H        1 UNL1     0.0280
     98 H         1.271849   10.657597   -0.365158 H        1 UNL1     0.0280
     99 H         2.817674   9.772482   -0.201675 H        1 UNL1     0.0280
     100 H         1.280558   10.684175   -3.876577 H        1 UNL1     0.2922
     101 H         3.751236   -0.141462   -3.232751 H        1 UNL1     0.0236
     102 H         4.520287   1.442984   -2.827591 H        1 UNL1     0.0236
     103 H         4.014543   1.071297   -4.446717 H        1 UNL1     0.0236
     104 H         1.517257   -0.66236   -3.333709 H        1 UNL1     0.2098
     105 H         0.272569   -1.642606   0.4882 H        1 UNL1     0.0234
     106 H         0.522872   -0.256245   1.586583 H        1 UNL1     0.0234
     107 H         0.0   0.0   0.0 H        1 UNL1     0.0234
     108 H         3.029799   1.8396   0.849106 H        1 UNL1     0.2098
     109 H         -0.348781   1.064028   1.489425 H        1 UNL1     0.0234
     110 H         -0.8796   2.603689   2.238075 H        1 UNL1     0.0234
     111 H         0.466756   2.577061   1.153889 H        1 UNL1     0.0234
     112 H         -2.321342   -0.937819   5.619457 H        1 UNL1     0.0342
     113 H         -1.846994   0.625227   4.864394 H        1 UNL1     0.0342
     114 H         -2.146141   -0.796872   3.861341 H        1 UNL1     0.0342
     115 H         3.941626   -0.59701   4.78683 H        1 UNL1     0.0234
     116 H         5.012052   -0.165883   3.449256 H        1 UNL1     0.0234
     117 H         4.007148   1.029808   4.294324 H        1 UNL1     0.0234
     118 H         -0.06875   6.685983   0.690698 H        1 UNL1     0.0309
     119 H         0.531669   5.34046   1.709091 H        1 UNL1     0.0309
     120 H         1.009894   6.998318   2.000577 H        1 UNL1     0.0309
     121 H         3.961124   3.013755   5.390998 H        1 UNL1     0.0524
     122 H         5.21822   3.246727   4.169405 H        1 UNL1     0.0524
     123 H         3.823395   4.353785   4.220665 H        1 UNL1     0.0524
@<TRIPOS>BOND
     1     1     2    1
     2     1    42    1
     3     2     3    2
     4     3     4    1
     5     4     5    2
     6     5     7    1
     7     6    75    1
     8     6    76    1
     9     6    77    1
    10     7     9   am
    11     9    10    1
    12    10    11    2
    13    10    43    1
    14    11    14    1
    15    11    15    1
    16    12    13   ar
    17    12    27   ar
    18    12    43    1
    19    13    14    1
    20    13    30   ar
    21    14    17    2
    22    15    16    1
    23    16    17    1
    24    16    18    1
    25    16    22    1
    26    18    19    1
    27    19    20    1
    28    20    21    1
    29    21    22    1
    30    23    24    1
    31    23    88    1
    32    23    89    1
    33    24    25    1
    34    24    26    1
    35    24    90    1
    36    25    91    1
    37    25    92    1
    38    25    93    1
    39    26    94    1
    40    26    95    1
    41    26    96    1
    42    27    28   ar
    43    28    29   ar
    44    29    30   ar
    45    29    31    1
    46    30    33    1
    47    31    32    1
    48    32    33    1
    49    32    35    1
    50    34    97    1
    51    34    98    1
    52    34    99    1
    53    35    61    1
    54    36    37    1
    55    36    60    1
    56    37    38    1
    57    38    39    1
    58    39    40    1
    59    40    41    1
    60    41    42    1
    61    45   100    1
    62    47   101    1
    63    47   102    1
    64    47   103    1
    65    48   104    1
    66    49   105    1
    67    49   106    1
    68    49   107    1
    69    50   108    1
    70    51    59    1
    71    52   109    1
    72    52   110    1
    73    52   111    1
    74    53    54    1
    75    54    55    2
    76    54    56    1
    77    56   112    1
    78    56   113    1
    79    56   114    1
    80    57   115    1
    81    57   116    1
    82    57   117    1
    83    58   118    1
    84    58   119    1
    85    58   120    1
    86    59   121    1
    87    59   122    1
    88    59   123    1
    89    60    61    2
    90     1    47    1
    91     1    62    1
    92     2    63    1
    93     3    64    1
    94     4    65    1
    95     5     6    1
    96     7     8    2
    97     9    78    1
    98    15    79    1
    99    18    80    1
   100    18    81    1
   101    19    82    1
   102    19    83    1
   103    20    23    1
   104    21    84    1
   105    21    85    1
   106    22    86    1
   107    22    87    1
   108    27    45    1
   109    28    34    1
   110    32    58    1
   111    33    46    2
   112    36    51    1
   113    36    66    1
   114    37    52    1
   115    37    67    1
   116    38    53    1
   117    38    68    1
   118    42    48    1
   119    42    72    1
   120    43    44    2
   121    60    73    1
   122    61    74    1
   123    39    69    1
   124    39    57    1
   125    40    70    1
   126    40    50    1
   127    41    71    1
   128    41    49    1
