@<TRIPOS>MOLECULE
*****
 123 128 0 0 0
SMALL
GASTEIGER

@<TRIPOS>ATOM
     1 C         -3.550128   -0.351398   -3.276855 C.3        1 UNL1     0.0009
     2 C         -5.174834   0.510739   -3.509426 C.2        1 UNL1     -0.0787
     3 C         -6.621397   0.473314   -3.555268 C.2        1 UNL1     -0.0649
     4 C         -7.691331   1.775125   -3.719238 C.2        1 UNL1     -0.0542
     5 C         -9.02476   2.213377   -3.526938 C.2        1 UNL1     0.0115
     6 C         -10.464193   1.743517   -3.17968 C.3        1 UNL1     -0.0348
     7 C         -9.329129   3.78942   -3.505986 C.2        1 UNL1     0.2441
     8 O         -9.814931   4.386018   -4.457086 O.2        1 UNL1     -0.2702
     9 N         -9.244744   4.388758   -2.237197 N.am        1 UNL1     -0.2772
     10 C         -7.956046   4.799862   -1.985061 C.2        1 UNL1     0.1049
     11 C         -7.128606   3.875896   -1.531352 C.2        1 UNL1     0.0801
     12 C         -6.048412   6.072188   -2.984787 C.ar        1 UNL1     0.0753
     13 C         -5.227695   4.946677   -2.655764 C.ar        1 UNL1     0.0305
     14 C         -5.71615   3.867576   -1.800191 C.2        1 UNL1     0.0924
     15 N         -7.383217   2.638525   -1.072423 N.pl3        1 UNL1     -0.3170
     16 C         -6.157134   2.106608   -0.539471 C.3        1 UNL1     0.1275
     17 N         -5.070966   2.810094   -1.316046 N.2        1 UNL1     -0.2557
     18 C         -6.037299   2.600926   0.898928 C.3        1 UNL1     0.0016
     19 C         -7.285501   2.185902   1.661384 C.3        1 UNL1     0.0026
     20 N         -7.401808   0.734954   1.613951 N.3        1 UNL1     -0.3018
     21 C         -7.461275   0.159653   0.268641 C.3        1 UNL1     0.0026
     22 C         -6.195778   0.585341   -0.477817 C.3        1 UNL1     0.0016
     23 C         -8.378319   0.216548   2.551142 C.3        1 UNL1     0.0012
     24 C         -8.483295   -1.311815   2.429316 C.3        1 UNL1     -0.0339
     25 C         -8.7991   -1.963697   3.785552 C.3        1 UNL1     -0.0615
     26 C         -9.515387   -1.680773   1.377918 C.3        1 UNL1     -0.0615
     27 C         -5.537989   7.153286   -3.699499 C.ar        1 UNL1     0.1347
     28 C         -4.21747   7.239901   -4.102955 C.ar        1 UNL1     0.0342
     29 C         -3.440621   6.098753   -3.810636 C.ar        1 UNL1     0.1435
     30 C         -3.947762   4.992955   -3.127086 C.ar        1 UNL1     0.0774
     31 O         -2.109712   6.074307   -4.041047 O.3        1 UNL1     -0.4436
     32 C         -1.617949   5.009088   -3.213792 C.3        1 UNL1     0.3143
     33 C         -2.812314   4.10674   -2.978263 C.2        1 UNL1     0.2504
     34 C         -3.540475   8.466945   -4.647144 C.3        1 UNL1     -0.0327
     35 O         -0.678147   4.261652   -3.995688 O.2        1 UNL1     -0.4528
     36 C         1.840261   2.853276   -1.529479 C.3        1 UNL1     0.0854
     37 C         1.596392   1.929969   -0.274268 C.3        1 UNL1     0.0236
     38 C         2.440554   0.566507   -0.263975 C.3        1 UNL1     0.1131
     39 C         2.42494   -0.376204   -1.534142 C.3        1 UNL1     0.0200
     40 C         0.995463   -0.693974   -2.332926 C.3        1 UNL1     0.0661
     41 C         -0.454538   -1.199336   -1.612013 C.3        1 UNL1     0.0091
     42 C         -2.196336   -0.867903   -2.082858 C.3        1 UNL1     0.0661
     43 C         -7.437295   6.090381   -2.462356 C.2        1 UNL1     0.2131
     44 O         -8.092009   7.108039   -2.326492 O.2        1 UNL1     -0.2851
     45 O         -6.415199   8.18786   -4.018242 O.3        1 UNL1     -0.5056
     46 O         -2.824716   2.919174   -2.742921 O.2        1 UNL1     -0.2836
     47 C         -3.206949   -1.202134   -4.529236 C.3        1 UNL1     -0.0566
     48 O         -2.619332   -2.283641   -1.956858 O.3        1 UNL1     -0.3909
     49 C         -0.354476   -0.992086   -0.117179 C.3        1 UNL1     -0.0577
     50 O         0.732068   0.29938   -3.303284 O.3        1 UNL1     -0.3910
     51 O         2.624748   2.297026   -2.560303 O.3        1 UNL1     -0.3753
     52 C         0.112441   1.992555   0.214527 C.3        1 UNL1     -0.0564
     53 O         2.465178   -0.114519   1.073157 O.3        1 UNL1     -0.4608
     54 C         2.423579   0.517621   2.288311 C.2        1 UNL1     0.3042
     55 O         3.254705   0.452009   3.193166 O.2        1 UNL1     -0.2512
     56 C         1.235211   1.421194   2.455793 C.3        1 UNL1     0.0332
     57 C         3.708406   -0.015938   -2.417939 C.3        1 UNL1     -0.0567
     58 C         -1.206731   5.653452   -1.869461 C.3        1 UNL1     0.0210
     59 C         2.013182   1.215505   -3.261847 C.3        1 UNL1     0.0372
     60 C         0.605633   3.384533   -2.168713 C.2        1 UNL1     -0.0208
     61 C         0.264936   3.466127   -3.455575 C.2        1 UNL1     0.0882
     62 H         -3.042325   0.612232   -3.404383 H        1 UNL1     0.0365
     63 H         -4.836509   1.514733   -3.774007 H        1 UNL1     0.0576
     64 H         -7.178458   -0.434667   -3.313689 H        1 UNL1     0.0615
     65 H         -7.049347   2.601893   -4.035142 H        1 UNL1     0.0622
     66 H         2.372744   3.727707   -1.129633 H        1 UNL1     0.0645
     67 H         2.062346   2.482892   0.559833 H        1 UNL1     0.0362
     68 H         3.459235   0.98118   -0.220895 H        1 UNL1     0.0741
     69 H         2.756216   -1.362975   -1.239273 H        1 UNL1     0.0359
     70 H         1.298722   -1.581388   -2.920796 H        1 UNL1     0.0600
     71 H         -0.33517   -2.297992   -1.68727 H        1 UNL1     0.0348
     72 H         -1.595351   -0.663824   -2.980903 H        1 UNL1     0.0602
     73 H         0.002058   3.849785   -1.429466 H        1 UNL1     0.0628
     74 H         0.797114   2.968686   -4.267102 H        1 UNL1     0.1022
     75 H         -11.220041   2.43841   -3.61883 H        1 UNL1     0.0279
     76 H         -10.77026   0.780218   -3.581483 H        1 UNL1     0.0279
     77 H         -10.691289   1.826195   -2.106697 H        1 UNL1     0.0279
     78 H         -9.495494   3.71027   -1.521058 H        1 UNL1     0.1553
     79 H         -8.287891   2.334713   -0.762268 H        1 UNL1     0.1484
     80 H         -5.132666   2.174752   1.34924 H        1 UNL1     0.0317
     81 H         -5.919999   3.689466   0.930106 H        1 UNL1     0.0317
     82 H         -8.188014   2.668716   1.258553 H        1 UNL1     0.0428
     83 H         -7.179967   2.549913   2.683836 H        1 UNL1     0.0428
     84 H         -7.46779   -0.934735   0.259476 H        1 UNL1     0.0428
     85 H         -8.387514   0.436354   -0.253696 H        1 UNL1     0.0428
     86 H         -6.209078   0.041266   -1.403989 H        1 UNL1     0.0317
     87 H         -5.308753   0.192929   0.034332 H        1 UNL1     0.0317
     88 H         -8.042054   0.463934   3.566534 H        1 UNL1     0.0429
     89 H         -9.357187   0.693083   2.411479 H        1 UNL1     0.0429
     90 H         -7.528807   -1.709469   2.064575 H        1 UNL1     0.0308
     91 H         -9.322488   -2.915862   3.656915 H        1 UNL1     0.0233
     92 H         -7.882607   -2.132411   4.355803 H        1 UNL1     0.0233
     93 H         -9.43827   -1.331702   4.413946 H        1 UNL1     0.0233
     94 H         -10.219612   -0.854294   1.233573 H        1 UNL1     0.0233
     95 H         -9.021735   -1.873993   0.421396 H        1 UNL1     0.0233
     96 H         -10.081298   -2.570118   1.669083 H        1 UNL1     0.0233
     97 H         -3.441983   9.244948   -3.895985 H        1 UNL1     0.0280
     98 H         -2.521457   8.256482   -4.997236 H        1 UNL1     0.0280
     99 H         -4.12831   8.870622   -5.487733 H        1 UNL1     0.0280
     100 H         -6.630967   8.754056   -3.29818 H        1 UNL1     0.2922
     101 H         -3.336401   -0.600869   -5.42889 H        1 UNL1     0.0236
     102 H         -3.764408   -2.136913   -4.578338 H        1 UNL1     0.0236
     103 H         -2.146925   -1.505894   -4.545769 H        1 UNL1     0.0236
     104 H         -3.543284   -2.34434   -2.269266 H        1 UNL1     0.2098
     105 H         -1.300945   -1.071861   0.411635 H        1 UNL1     0.0234
     106 H         0.406206   -1.596738   0.376467 H        1 UNL1     0.0234
     107 H         0.0   0.0   0.0 H        1 UNL1     0.0234
     108 H         0.375188   1.077185   -2.832727 H        1 UNL1     0.2098
     109 H         -0.192552   1.07497   0.736762 H        1 UNL1     0.0234
     110 H         -0.095653   2.861296   0.848348 H        1 UNL1     0.0234
     111 H         -0.586113   2.102563   -0.625632 H        1 UNL1     0.0234
     112 H         1.39065   2.348197   1.89557 H        1 UNL1     0.0342
     113 H         0.30672   0.936038   2.158517 H        1 UNL1     0.0342
     114 H         1.149107   1.68114   3.519832 H        1 UNL1     0.0342
     115 H         3.494577   0.78207   -3.142265 H        1 UNL1     0.0234
     116 H         4.576714   0.29499   -1.833633 H        1 UNL1     0.0234
     117 H         4.024255   -0.833466   -3.088632 H        1 UNL1     0.0234
     118 H         -1.788034   6.566686   -1.652443 H        1 UNL1     0.0309
     119 H         -1.288633   4.966701   -1.021011 H        1 UNL1     0.0309
     120 H         -0.17042   6.008631   -1.873149 H        1 UNL1     0.0309
     121 H         2.194809   0.306401   -2.689222 H        1 UNL1     0.0524
     122 H         0.921017   1.339011   -3.351058 H        1 UNL1     0.0524
     123 H         2.440025   1.123516   -4.256551 H        1 UNL1     0.0524
@<TRIPOS>BOND
     1     1     2    1
     2     1    42    1
     3     2     3    2
     4     3     4    1
     5     4     5    2
     6     5     7    1
     7     6    75    1
     8     6    76    1
     9     6    77    1
    10     7     9   am
    11     9    10    1
    12    10    11    2
    13    10    43    1
    14    11    14    1
    15    11    15    1
    16    12    13   ar
    17    12    27   ar
    18    12    43    1
    19    13    14    1
    20    13    30   ar
    21    14    17    2
    22    15    16    1
    23    16    17    1
    24    16    18    1
    25    16    22    1
    26    18    19    1
    27    19    20    1
    28    20    21    1
    29    21    22    1
    30    23    24    1
    31    23    88    1
    32    23    89    1
    33    24    25    1
    34    24    26    1
    35    24    90    1
    36    25    91    1
    37    25    92    1
    38    25    93    1
    39    26    94    1
    40    26    95    1
    41    26    96    1
    42    27    28   ar
    43    28    29   ar
    44    29    30   ar
    45    29    31    1
    46    30    33    1
    47    31    32    1
    48    32    33    1
    49    32    35    1
    50    34    97    1
    51    34    98    1
    52    34    99    1
    53    35    61    1
    54    36    37    1
    55    36    60    1
    56    37    38    1
    57    38    39    1
    58    39    40    1
    59    40    41    1
    60    41    42    1
    61    45   100    1
    62    47   101    1
    63    47   102    1
    64    47   103    1
    65    48   104    1
    66    49   105    1
    67    49   106    1
    68    49   107    1
    69    50   108    1
    70    51    59    1
    71    52   109    1
    72    52   110    1
    73    52   111    1
    74    53    54    1
    75    54    55    2
    76    54    56    1
    77    56   112    1
    78    56   113    1
    79    56   114    1
    80    57   115    1
    81    57   116    1
    82    57   117    1
    83    58   118    1
    84    58   119    1
    85    58   120    1
    86    59   121    1
    87    59   122    1
    88    59   123    1
    89    60    61    2
    90     1    47    1
    91     1    62    1
    92     2    63    1
    93     3    64    1
    94     4    65    1
    95     5     6    1
    96     7     8    2
    97     9    78    1
    98    15    79    1
    99    18    80    1
   100    18    81    1
   101    19    82    1
   102    19    83    1
   103    20    23    1
   104    21    84    1
   105    21    85    1
   106    22    86    1
   107    22    87    1
   108    27    45    1
   109    28    34    1
   110    32    58    1
   111    33    46    2
   112    36    51    1
   113    36    66    1
   114    37    52    1
   115    37    67    1
   116    38    53    1
   117    38    68    1
   118    42    48    1
   119    42    72    1
   120    43    44    2
   121    60    73    1
   122    61    74    1
   123    39    69    1
   124    39    57    1
   125    40    70    1
   126    40    50    1
   127    41    71    1
   128    41    49    1
