@<TRIPOS>MOLECULE
*****
 123 128 0 0 0
SMALL
GASTEIGER

@<TRIPOS>ATOM
     1 C         -0.832322   -0.279249   -5.0884 C.3        1 UNL1     0.0009
     2 C         -1.663071   -1.408344   -6.301675 C.2        1 UNL1     -0.0787
     3 C         -1.588498   -2.317823   -7.425656 C.2        1 UNL1     -0.0649
     4 C         -2.8351   -3.244992   -8.098485 C.2        1 UNL1     -0.0542
     5 C         -3.140739   -4.372262   -8.90031 C.2        1 UNL1     0.0115
     6 C         -2.532446   -5.442165   -9.848261 C.3        1 UNL1     -0.0348
     7 C         -4.617441   -4.997925   -8.830416 C.2        1 UNL1     0.2441
     8 O         -5.465002   -4.80086   -9.69026 O.2        1 UNL1     -0.2702
     9 N         -4.789006   -5.99515   -7.854578 N.am        1 UNL1     -0.2772
     10 C         -5.147077   -5.432659   -6.650954 C.2        1 UNL1     0.1049
     11 C         -4.15849   -4.968204   -5.908526 C.2        1 UNL1     0.0801
     12 C         -6.739334   -3.802762   -5.618728 C.ar        1 UNL1     0.0753
     13 C         -5.598671   -3.202109   -4.996865 C.ar        1 UNL1     0.0305
     14 C         -4.287607   -3.846875   -5.017837 C.2        1 UNL1     0.0924
     15 N         -2.831011   -5.137611   -6.03354 N.pl3        1 UNL1     -0.3170
     16 C         -2.203981   -4.569051   -4.87 C.3        1 UNL1     0.1275
     17 N         -3.156068   -3.489038   -4.417422 N.2        1 UNL1     -0.2557
     18 C         -2.223807   -5.635447   -3.779079 C.3        1 UNL1     0.0016
     19 C         -1.543724   -6.887232   -4.310219 C.3        1 UNL1     0.0026
     20 N         -0.178428   -6.552192   -4.690669 N.3        1 UNL1     -0.3018
     21 C         -0.054699   -5.490764   -5.691884 C.3        1 UNL1     0.0026
     22 C         -0.740492   -4.241683   -5.135666 C.3        1 UNL1     0.0016
     23 C         0.644713   -7.721786   -4.925474 C.3        1 UNL1     0.0012
     24 C         0.937151   -8.448825   -3.603487 C.3        1 UNL1     -0.0339
     25 C         2.336899   -9.085007   -3.609259 C.3        1 UNL1     -0.0615
     26 C         0.761445   -7.495015   -2.434661 C.3        1 UNL1     -0.0615
     27 C         -8.008707   -3.243605   -5.491635 C.ar        1 UNL1     0.1347
     28 C         -8.266879   -2.112365   -4.73818 C.ar        1 UNL1     0.0342
     29 C         -7.121334   -1.51056   -4.175401 C.ar        1 UNL1     0.1435
     30 C         -5.838482   -2.039103   -4.324242 C.ar        1 UNL1     0.0774
     31 O         -7.220029   -0.465831   -3.324633 O.3        1 UNL1     -0.4436
     32 C         -5.967328   -0.449364   -2.623674 C.3        1 UNL1     0.3143
     33 C         -4.99319   -1.166414   -3.536421 C.2        1 UNL1     0.2504
     34 C         -9.62707   -1.602152   -4.351316 C.3        1 UNL1     -0.0327
     35 O         -5.539758   0.91615   -2.547475 O.2        1 UNL1     -0.4528
     36 C         -3.520053   1.197098   0.654079 C.3        1 UNL1     0.0854
     37 C         -2.239817   0.39024   1.098488 C.3        1 UNL1     0.0236
     38 C         -0.974834   1.293542   1.492959 C.3        1 UNL1     0.1131
     39 C         -0.480626   2.426445   0.505761 C.3        1 UNL1     0.0200
     40 C         -0.378153   2.133311   -1.133144 C.3        1 UNL1     0.0661
     41 C         0.381971   0.801664   -1.858772 C.3        1 UNL1     0.0091
     42 C         -0.016278   -0.097815   -3.407235 C.3        1 UNL1     0.0661
     43 C         -6.540522   -5.090355   -6.329248 C.2        1 UNL1     0.2131
     44 O         -7.43852   -5.882211   -6.551281 O.2        1 UNL1     -0.2851
     45 O         -9.057803   -3.864992   -6.16596 O.3        1 UNL1     -0.5056
     46 O         -3.792377   -1.031463   -3.61185 O.2        1 UNL1     -0.2836
     47 C         -0.433006   1.053155   -5.777767 C.3        1 UNL1     -0.0566
     48 O         1.381643   -0.096259   -3.902141 O.3        1 UNL1     -0.3909
     49 C         0.652894   -0.242826   -0.79899 C.3        1 UNL1     -0.0577
     50 O         -1.616259   2.386923   -1.765993 O.3        1 UNL1     -0.3910
     51 O         -3.346498   2.586529   0.490394 O.3        1 UNL1     -0.3753
     52 C         -2.090186   -0.947691   0.30319 C.3        1 UNL1     -0.0564
     53 O         0.091531   0.5423   2.235137 O.3        1 UNL1     -0.4608
     54 C         1.441663   0.725726   2.088753 C.2        1 UNL1     0.3042
     55 O         2.125853   1.638086   2.55062 O.2        1 UNL1     -0.2512
     56 C         2.117085   -0.370428   1.314825 C.3        1 UNL1     0.0332
     57 C         -1.148331   3.801442   0.976639 C.3        1 UNL1     -0.0567
     58 C         -6.169876   -1.296693   -1.345966 C.3        1 UNL1     0.0210
     59 C         -3.953861   3.38965   1.50132 C.3        1 UNL1     0.0372
     60 C         -4.179639   0.698192   -0.583337 C.2        1 UNL1     -0.0208
     61 C         -4.650018   1.362159   -1.640047 C.2        1 UNL1     0.0882
     62 H         -1.805126   -0.106139   -4.612589 H        1 UNL1     0.0365
     63 H         -2.711079   -1.260395   -6.03286 H        1 UNL1     0.0576
     64 H         -0.630695   -2.618429   -7.856187 H        1 UNL1     0.0615
     65 H         -3.742456   -2.814838   -7.665871 H        1 UNL1     0.0622
     66 H         -4.242958   1.037016   1.466377 H        1 UNL1     0.0645
     67 H         -2.518497   -0.036704   2.077578 H        1 UNL1     0.0362
     68 H         -1.39219   1.825201   2.361679 H        1 UNL1     0.0741
     69 H         0.535816   2.693104   0.762952 H        1 UNL1     0.0359
     70 H         0.266871   2.979436   -1.438228 H        1 UNL1     0.0600
     71 H         1.395695   1.219617   -2.015729 H        1 UNL1     0.0348
     72 H         -0.515104   0.878973   -3.487073 H        1 UNL1     0.0602
     73 H         -4.365499   -0.342475   -0.484762 H        1 UNL1     0.0628
     74 H         -4.453773   2.415321   -1.843951 H        1 UNL1     0.1022
     75 H         -1.765885   -4.982452   -10.51765 H        1 UNL1     0.0279
     76 H         -1.977139   -6.249371   -9.375903 H        1 UNL1     0.0279
     77 H         -3.258898   -5.823809   -10.580597 H        1 UNL1     0.0279
     78 H         -3.91059   -6.489387   -7.712478 H        1 UNL1     0.1553
     79 H         -2.411666   -5.872766   -6.572641 H        1 UNL1     0.1484
     80 H         -1.711206   -5.247505   -2.890536 H        1 UNL1     0.0317
     81 H         -3.25059   -5.863923   -3.473847 H        1 UNL1     0.0317
     82 H         -2.09515   -7.322088   -5.156825 H        1 UNL1     0.0428
     83 H         -1.570554   -7.635158   -3.517164 H        1 UNL1     0.0428
     84 H         0.980468   -5.203438   -5.900893 H        1 UNL1     0.0428
     85 H         -0.447456   -5.803078   -6.66939 H        1 UNL1     0.0428
     86 H         -0.515974   -3.454203   -5.830974 H        1 UNL1     0.0317
     87 H         -0.239765   -3.91782   -4.215078 H        1 UNL1     0.0317
     88 H         0.090095   -8.403179   -5.583804 H        1 UNL1     0.0429
     89 H         1.574187   -7.457291   -5.44595 H        1 UNL1     0.0429
     90 H         0.193889   -9.241582   -3.457503 H        1 UNL1     0.0308
     91 H         3.089603   -8.386698   -3.987285 H        1 UNL1     0.0233
     92 H         2.619059   -9.406917   -2.604088 H        1 UNL1     0.0233
     93 H         2.386508   -9.979446   -4.241993 H        1 UNL1     0.0233
     94 H         1.511427   -7.700713   -1.663265 H        1 UNL1     0.0233
     95 H         0.89763   -6.463251   -2.770636 H        1 UNL1     0.0233
     96 H         -0.231216   -7.592084   -1.98614 H        1 UNL1     0.0233
     97 H         -9.573062   -0.850291   -3.569639 H        1 UNL1     0.0280
     98 H         -10.144469   -1.123796   -5.193177 H        1 UNL1     0.0280
     99 H         -10.244284   -2.43848   -3.984304 H        1 UNL1     0.0280
     100 H         -8.884405   -4.052811   -7.071653 H        1 UNL1     0.2922
     101 H         -0.282382   1.826137   -5.024462 H        1 UNL1     0.0236
     102 H         -1.137153   1.364852   -6.548484 H        1 UNL1     0.0236
     103 H         0.536597   0.976173   -6.297514 H        1 UNL1     0.0236
     104 H         1.776413   0.766514   -3.668155 H        1 UNL1     0.2098
     105 H         0.436212   -1.262451   -1.107576 H        1 UNL1     0.0234
     106 H         1.643329   -0.18718   -0.347472 H        1 UNL1     0.0234
     107 H         0.0   0.0   0.0 H        1 UNL1     0.0234
     108 H         -1.573091   1.990191   -2.657344 H        1 UNL1     0.2098
     109 H         -2.945063   -1.620908   0.457057 H        1 UNL1     0.0234
     110 H         -1.932422   -0.795159   -0.76993 H        1 UNL1     0.0234
     111 H         -1.205186   -1.512815   0.624682 H        1 UNL1     0.0234
     112 H         3.187449   -0.160088   1.228661 H        1 UNL1     0.0342
     113 H         1.945895   -1.350205   1.758192 H        1 UNL1     0.0342
     114 H         1.694117   -0.385381   0.300903 H        1 UNL1     0.0342
     115 H         -0.490073   4.660714   0.788132 H        1 UNL1     0.0234
     116 H         -2.10893   4.013564   0.503032 H        1 UNL1     0.0234
     117 H         -1.284296   3.872876   2.069503 H        1 UNL1     0.0234
     118 H         -6.163517   -0.677011   -0.432204 H        1 UNL1     0.0309
     119 H         -7.087026   -1.893836   -1.367366 H        1 UNL1     0.0309
     120 H         -5.351057   -2.004524   -1.176802 H        1 UNL1     0.0309
     121 H         -4.876166   3.797475   1.08854 H        1 UNL1     0.0524
     122 H         -4.221324   2.803855   2.396499 H        1 UNL1     0.0524
     123 H         -3.285748   4.194846   1.793519 H        1 UNL1     0.0524
@<TRIPOS>BOND
     1     1     2    1
     2     1    42    1
     3     2     3    2
     4     3     4    1
     5     4     5    2
     6     5     7    1
     7     6    75    1
     8     6    76    1
     9     6    77    1
    10     7     9   am
    11     9    10    1
    12    10    11    2
    13    10    43    1
    14    11    14    1
    15    11    15    1
    16    12    13   ar
    17    12    27   ar
    18    12    43    1
    19    13    14    1
    20    13    30   ar
    21    14    17    2
    22    15    16    1
    23    16    17    1
    24    16    18    1
    25    16    22    1
    26    18    19    1
    27    19    20    1
    28    20    21    1
    29    21    22    1
    30    23    24    1
    31    23    88    1
    32    23    89    1
    33    24    25    1
    34    24    26    1
    35    24    90    1
    36    25    91    1
    37    25    92    1
    38    25    93    1
    39    26    94    1
    40    26    95    1
    41    26    96    1
    42    27    28   ar
    43    28    29   ar
    44    29    30   ar
    45    29    31    1
    46    30    33    1
    47    31    32    1
    48    32    33    1
    49    32    35    1
    50    34    97    1
    51    34    98    1
    52    34    99    1
    53    35    61    1
    54    36    37    1
    55    36    60    1
    56    37    38    1
    57    38    39    1
    58    39    40    1
    59    40    41    1
    60    41    42    1
    61    45   100    1
    62    47   101    1
    63    47   102    1
    64    47   103    1
    65    48   104    1
    66    49   105    1
    67    49   106    1
    68    49   107    1
    69    50   108    1
    70    51    59    1
    71    52   109    1
    72    52   110    1
    73    52   111    1
    74    53    54    1
    75    54    55    2
    76    54    56    1
    77    56   112    1
    78    56   113    1
    79    56   114    1
    80    57   115    1
    81    57   116    1
    82    57   117    1
    83    58   118    1
    84    58   119    1
    85    58   120    1
    86    59   121    1
    87    59   122    1
    88    59   123    1
    89    60    61    2
    90     1    47    1
    91     1    62    1
    92     2    63    1
    93     3    64    1
    94     4    65    1
    95     5     6    1
    96     7     8    2
    97     9    78    1
    98    15    79    1
    99    18    80    1
   100    18    81    1
   101    19    82    1
   102    19    83    1
   103    20    23    1
   104    21    84    1
   105    21    85    1
   106    22    86    1
   107    22    87    1
   108    27    45    1
   109    28    34    1
   110    32    58    1
   111    33    46    2
   112    36    51    1
   113    36    66    1
   114    37    52    1
   115    37    67    1
   116    38    53    1
   117    38    68    1
   118    42    48    1
   119    42    72    1
   120    43    44    2
   121    60    73    1
   122    61    74    1
   123    39    69    1
   124    39    57    1
   125    40    70    1
   126    40    50    1
   127    41    71    1
   128    41    49    1
