@<TRIPOS>MOLECULE
*****
 123 128 0 0 0
SMALL
GASTEIGER

@<TRIPOS>ATOM
     1 C         3.728968   -0.673379   -2.976909 C.3        1 UNL1     0.0009
     2 C         5.56951   -0.87926   -2.892918 C.2        1 UNL1     -0.0787
     3 C         6.893423   -0.305613   -2.773625 C.2        1 UNL1     -0.0649
     4 C         8.370583   -1.119414   -2.625022 C.2        1 UNL1     -0.0542
     5 C         9.722705   -1.006147   -2.217572 C.2        1 UNL1     0.0115
     6 C         10.821495   -0.001573   -1.773934 C.3        1 UNL1     -0.0348
     7 C         10.56456   -2.34413   -1.938161 C.2        1 UNL1     0.2441
     8 O         11.378699   -2.79594   -2.731616 O.2        1 UNL1     -0.2702
     9 N         10.497255   -2.817028   -0.616045 N.am        1 UNL1     -0.2772
     10 C         9.419249   -3.657998   -0.461144 C.2        1 UNL1     0.1049
     11 C         8.253832   -3.076238   -0.243015 C.2        1 UNL1     0.0801
     12 C         8.283174   -5.636228   -1.487436 C.ar        1 UNL1     0.0753
     13 C         7.071753   -4.876973   -1.419612 C.ar        1 UNL1     0.0305
     14 C         6.995644   -3.62259   -0.674103 C.2        1 UNL1     0.0924
     15 N         7.969956   -1.798571   0.062778 N.pl3        1 UNL1     -0.3170
     16 C         6.565895   -1.721231   0.367549 C.3        1 UNL1     0.1275
     17 N         5.944979   -2.846529   -0.423584 N.2        1 UNL1     -0.2557
     18 C         6.400954   -2.095604   1.837359 C.3        1 UNL1     0.0016
     19 C         7.276604   -1.176855   2.674453 C.3        1 UNL1     0.0026
     20 N         6.870661   0.201335   2.43606 N.3        1 UNL1     -0.3018
     21 C         6.936028   0.635958   1.039207 C.3        1 UNL1     0.0026
     22 C         6.04572   -0.297715   0.217318 C.3        1 UNL1     0.0016
     23 C         7.43124   1.128844   3.398412 C.3        1 UNL1     0.0012
     24 C         8.181574   0.369774   4.50411 C.3        1 UNL1     -0.0339
     25 C         7.512348   0.565775   5.87443 C.3        1 UNL1     -0.0615
     26 C         8.293824   -1.100979   4.14208 C.3        1 UNL1     -0.0615
     27 C         8.317073   -6.888295   -2.096778 C.ar        1 UNL1     0.1347
     28 C         7.199189   -7.499574   -2.635966 C.ar        1 UNL1     0.0342
     29 C         6.028413   -6.712653   -2.601289 C.ar        1 UNL1     0.1435
     30 C         5.987664   -5.441775   -2.02646 C.ar        1 UNL1     0.0774
     31 O         4.833211   -7.210123   -2.987323 O.3        1 UNL1     -0.4436
     32 C         3.865459   -6.339094   -2.382644 C.3        1 UNL1     0.3143
     33 C         4.601812   -5.03735   -2.1388 C.2        1 UNL1     0.2504
     34 C         7.104787   -8.93382   -3.076566 C.3        1 UNL1     -0.0327
     35 O         2.859449   -6.071231   -3.367248 O.2        1 UNL1     -0.4528
     36 C         -0.359136   -5.500195   -1.437814 C.3        1 UNL1     0.0854
     37 C         -0.668708   -4.44619   -0.306106 C.3        1 UNL1     0.0236
     38 C         -1.935617   -3.50427   -0.588017 C.3        1 UNL1     0.1131
     39 C         -2.054501   -2.740508   -1.968164 C.3        1 UNL1     0.0200
     40 C         -0.725374   -1.980941   -2.630672 C.3        1 UNL1     0.0661
     41 C         0.310101   -0.90673   -1.823534 C.3        1 UNL1     0.0091
     42 C         2.106355   -0.599986   -2.035155 C.3        1 UNL1     0.0661
     43 C         9.482311   -5.085499   -0.808446 C.2        1 UNL1     0.2131
     44 O         10.427404   -5.766628   -0.454043 O.2        1 UNL1     -0.2851
     45 O         9.546149   -7.541531   -2.160746 O.3        1 UNL1     -0.5056
     46 O         4.149198   -3.916273   -2.074137 O.2        1 UNL1     -0.2836
     47 C         3.310342   -0.12763   -4.368631 C.3        1 UNL1     -0.0566
     48 O         1.967021   0.87615   -2.06212 O.3        1 UNL1     -0.3909
     49 C         0.051246   -1.003849   -0.336572 C.3        1 UNL1     -0.0577
     50 O         0.029731   -2.884016   -3.412972 O.3        1 UNL1     -0.3910
     51 O         -1.113596   -5.372335   -2.621821 O.3        1 UNL1     -0.3753
     52 C         0.639187   -3.903686   0.357256 C.3        1 UNL1     -0.0564
     53 O         -2.418338   -2.767399   0.627025 O.3        1 UNL1     -0.4608
     54 C         -1.638017   -2.006372   1.457607 C.2        1 UNL1     0.3042
     55 O         -0.749806   -2.397571   2.213837 O.2        1 UNL1     -0.2512
     56 C         -1.904243   -0.531911   1.348976 C.3        1 UNL1     0.0332
     57 C         -2.962638   -3.632664   -2.93642 C.3        1 UNL1     -0.0567
     58 C         3.501633   -6.9696   -1.018231 C.3        1 UNL1     0.0210
     59 C         -2.39508   -4.767868   -2.453648 C.3        1 UNL1     0.0372
     60 C         1.069694   -5.583079   -1.846146 C.2        1 UNL1     -0.0208
     61 C         1.619848   -5.643786   -3.059567 C.2        1 UNL1     0.0882
     62 H         3.628384   -1.764362   -3.025398 H        1 UNL1     0.0365
     63 H         5.661338   -1.955919   -3.050534 H        1 UNL1     0.0576
     64 H         7.040854   0.762567   -2.599374 H        1 UNL1     0.0615
     65 H         8.127934   -2.151097   -2.893788 H        1 UNL1     0.0622
     66 H         -0.599508   -6.471694   -0.983439 H        1 UNL1     0.0645
     67 H         -1.033329   -5.057823   0.537408 H        1 UNL1     0.0362
     68 H         -2.730361   -4.265561   -0.606437 H        1 UNL1     0.0741
     69 H         -2.760655   -1.928493   -1.856869 H        1 UNL1     0.0359
     70 H         -1.227684   -1.327829   -3.369719 H        1 UNL1     0.0600
     71 H         -0.181642   0.05548   -2.067044 H        1 UNL1     0.0348
     72 H         1.771946   -1.093035   -2.959486 H        1 UNL1     0.0602
     73 H         1.672231   -5.720592   -0.982845 H        1 UNL1     0.0628
     74 H         1.083067   -5.456132   -3.990099 H        1 UNL1     0.1022
     75 H         10.522258   1.043966   -2.02759 H        1 UNL1     0.0279
     76 H         11.016895   0.063259   -0.705906 H        1 UNL1     0.0279
     77 H         11.751925   -0.106818   -2.350929 H        1 UNL1     0.0279
     78 H         10.368824   -2.0338   0.021243 H        1 UNL1     0.1553
     79 H         8.642655   -1.151257   0.430737 H        1 UNL1     0.1484
     80 H         5.343698   -2.002408   2.113567 H        1 UNL1     0.0317
     81 H         6.678593   -3.141228   2.008352 H        1 UNL1     0.0317
     82 H         8.344569   -1.318923   2.452687 H        1 UNL1     0.0428
     83 H         7.145181   -1.462271   3.718635 H        1 UNL1     0.0428
     84 H         6.550885   1.647318   0.87603 H        1 UNL1     0.0428
     85 H         7.971146   0.682439   0.673574 H        1 UNL1     0.0428
     86 H         6.012211   0.127682   -0.768533 H        1 UNL1     0.0317
     87 H         5.006788   -0.22361   0.561155 H        1 UNL1     0.0317
     88 H         8.145128   1.776437   2.872787 H        1 UNL1     0.0429
     89 H         6.656505   1.781136   3.821583 H        1 UNL1     0.0429
     90 H         9.21077   0.743507   4.56149 H        1 UNL1     0.0308
     91 H         8.028894   1.329308   6.463751 H        1 UNL1     0.0233
     92 H         6.464861   0.852458   5.755296 H        1 UNL1     0.0233
     93 H         7.51176   -0.352515   6.474078 H        1 UNL1     0.0233
     94 H         9.217665   -1.282726   3.582327 H        1 UNL1     0.0233
     95 H         8.32543   -1.708165   5.051084 H        1 UNL1     0.0233
     96 H         7.448681   -1.426707   3.529216 H        1 UNL1     0.0233
     97 H         7.280497   -9.624241   -2.257009 H        1 UNL1     0.0280
     98 H         6.110181   -9.181269   -3.46999 H        1 UNL1     0.0280
     99 H         7.855145   -9.129355   -3.860036 H        1 UNL1     0.0280
     100 H         9.488557   -8.478448   -2.227769 H        1 UNL1     0.2922
     101 H         4.018402   -0.466472   -5.124602 H        1 UNL1     0.0236
     102 H         3.182161   0.954182   -4.383991 H        1 UNL1     0.0236
     103 H         2.337348   -0.53057   -4.695914 H        1 UNL1     0.0236
     104 H         1.375254   1.130033   -1.327052 H        1 UNL1     0.2098
     105 H         -0.884698   -1.490821   -0.074506 H        1 UNL1     0.0234
     106 H         0.872274   -1.427212   0.241877 H        1 UNL1     0.0234
     107 H         0.0   0.0   0.0 H        1 UNL1     0.0234
     108 H         0.756636   -2.375967   -3.821952 H        1 UNL1     0.2098
     109 H         1.345482   -3.50244   -0.382921 H        1 UNL1     0.0234
     110 H         0.449637   -3.149905   1.129026 H        1 UNL1     0.0234
     111 H         1.183016   -4.696743   0.887591 H        1 UNL1     0.0234
     112 H         -2.722537   -0.251131   2.018978 H        1 UNL1     0.0342
     113 H         -1.013366   0.061042   1.550445 H        1 UNL1     0.0342
     114 H         -2.222345   -0.315612   0.319806 H        1 UNL1     0.0342
     115 H         -4.010002   -3.30068   -2.934605 H        1 UNL1     0.0234
     116 H         -2.62433   -3.646394   -3.974403 H        1 UNL1     0.0234
     117 H         -3.069863   -4.678038   -2.599318 H        1 UNL1     0.0234
     118 H         2.40964   -7.023778   -0.864537 H        1 UNL1     0.0309
     119 H         3.933114   -7.965556   -0.876464 H        1 UNL1     0.0309
     120 H         3.846287   -6.36644   -0.171166 H        1 UNL1     0.0309
     121 H         -3.010081   -5.454966   -1.873107 H        1 UNL1     0.0524
     122 H         -2.339885   -3.818745   -1.894937 H        1 UNL1     0.0524
     123 H         -2.852566   -4.581391   -3.421133 H        1 UNL1     0.0524
@<TRIPOS>BOND
     1     1     2    1
     2     1    42    1
     3     2     3    2
     4     3     4    1
     5     4     5    2
     6     5     7    1
     7     6    75    1
     8     6    76    1
     9     6    77    1
    10     7     9   am
    11     9    10    1
    12    10    11    2
    13    10    43    1
    14    11    14    1
    15    11    15    1
    16    12    13   ar
    17    12    27   ar
    18    12    43    1
    19    13    14    1
    20    13    30   ar
    21    14    17    2
    22    15    16    1
    23    16    17    1
    24    16    18    1
    25    16    22    1
    26    18    19    1
    27    19    20    1
    28    20    21    1
    29    21    22    1
    30    23    24    1
    31    23    88    1
    32    23    89    1
    33    24    25    1
    34    24    26    1
    35    24    90    1
    36    25    91    1
    37    25    92    1
    38    25    93    1
    39    26    94    1
    40    26    95    1
    41    26    96    1
    42    27    28   ar
    43    28    29   ar
    44    29    30   ar
    45    29    31    1
    46    30    33    1
    47    31    32    1
    48    32    33    1
    49    32    35    1
    50    34    97    1
    51    34    98    1
    52    34    99    1
    53    35    61    1
    54    36    37    1
    55    36    60    1
    56    37    38    1
    57    38    39    1
    58    39    40    1
    59    40    41    1
    60    41    42    1
    61    45   100    1
    62    47   101    1
    63    47   102    1
    64    47   103    1
    65    48   104    1
    66    49   105    1
    67    49   106    1
    68    49   107    1
    69    50   108    1
    70    51    59    1
    71    52   109    1
    72    52   110    1
    73    52   111    1
    74    53    54    1
    75    54    55    2
    76    54    56    1
    77    56   112    1
    78    56   113    1
    79    56   114    1
    80    57   115    1
    81    57   116    1
    82    57   117    1
    83    58   118    1
    84    58   119    1
    85    58   120    1
    86    59   121    1
    87    59   122    1
    88    59   123    1
    89    60    61    2
    90     1    47    1
    91     1    62    1
    92     2    63    1
    93     3    64    1
    94     4    65    1
    95     5     6    1
    96     7     8    2
    97     9    78    1
    98    15    79    1
    99    18    80    1
   100    18    81    1
   101    19    82    1
   102    19    83    1
   103    20    23    1
   104    21    84    1
   105    21    85    1
   106    22    86    1
   107    22    87    1
   108    27    45    1
   109    28    34    1
   110    32    58    1
   111    33    46    2
   112    36    51    1
   113    36    66    1
   114    37    52    1
   115    37    67    1
   116    38    53    1
   117    38    68    1
   118    42    48    1
   119    42    72    1
   120    43    44    2
   121    60    73    1
   122    61    74    1
   123    39    69    1
   124    39    57    1
   125    40    70    1
   126    40    50    1
   127    41    71    1
   128    41    49    1
