@<TRIPOS>MOLECULE
*****
 123 128 0 0 0
SMALL
GASTEIGER

@<TRIPOS>ATOM
     1 C         4.340783   2.621222   -2.07307 C.3        1 UNL1     0.0009
     2 C         5.417462   2.867747   -3.562037 C.2        1 UNL1     -0.0787
     3 C         6.648288   2.608424   -4.278883 C.2        1 UNL1     -0.0649
     4 C         7.057641   3.086514   -5.850575 C.2        1 UNL1     -0.0542
     5 C         7.907911   2.836503   -6.955841 C.2        1 UNL1     0.0115
     6 C         9.163197   2.049408   -7.422813 C.3        1 UNL1     -0.0348
     7 C         7.499861   3.415383   -8.39646 C.2        1 UNL1     0.2441
     8 O         8.014807   4.412662   -8.88307 O.2        1 UNL1     -0.2702
     9 N         6.702371   2.556064   -9.172174 N.am        1 UNL1     -0.2772
     10 C         5.369672   2.757141   -8.895037 C.2        1 UNL1     0.1049
     11 C         4.895268   2.13186   -7.832876 C.2        1 UNL1     0.0801
     12 C         3.641179   4.549938   -8.659404 C.ar        1 UNL1     0.0753
     13 C         3.302876   3.949919   -7.404758 C.ar        1 UNL1     0.0305
     14 C         3.830565   2.644635   -7.013825 C.2        1 UNL1     0.0924
     15 N         5.444715   1.158506   -7.086405 N.pl3        1 UNL1     -0.3170
     16 C         4.447972   0.704789   -6.153186 C.3        1 UNL1     0.1275
     17 N         3.550848   1.900829   -5.947317 N.2        1 UNL1     -0.2557
     18 C         3.600473   -0.341866   -6.870096 C.3        1 UNL1     0.0016
     19 C         4.517753   -1.436924   -7.390704 C.3        1 UNL1     0.0026
     20 N         5.232441   -2.022839   -6.265113 N.3        1 UNL1     -0.3018
     21 C         6.028272   -1.080693   -5.475567 C.3        1 UNL1     0.0026
     22 C         5.086207   0.008018   -4.958734 C.3        1 UNL1     0.0016
     23 C         5.901448   -3.262653   -6.605605 C.3        1 UNL1     0.0012
     24 C         4.880563   -4.401115   -6.758756 C.3        1 UNL1     -0.0339
     25 C         5.46315   -5.745405   -6.292354 C.3        1 UNL1     -0.0615
     26 C         3.601937   -4.057659   -6.014489 C.3        1 UNL1     -0.0615
     27 C         3.041226   5.73538   -9.077617 C.ar        1 UNL1     0.1347
     28 C         2.06426   6.389128   -8.348096 C.ar        1 UNL1     0.0342
     29 C         1.782632   5.806532   -7.094129 C.ar        1 UNL1     0.1435
     30 C         2.401867   4.639086   -6.645978 C.ar        1 UNL1     0.0774
     31 O         0.777612   6.262449   -6.314976 O.3        1 UNL1     -0.4436
     32 C         0.498467   5.180793   -5.413327 C.3        1 UNL1     0.3143
     33 C         1.771999   4.360646   -5.372203 C.2        1 UNL1     0.2504
     34 C         1.201505   7.516871   -8.842008 C.3        1 UNL1     -0.0327
     35 O         0.324996   5.747652   -4.108785 O.2        1 UNL1     -0.4528
     36 C         -2.110065   3.466972   -2.298519 C.3        1 UNL1     0.0854
     37 C         -2.000466   1.920126   -2.010806 C.3        1 UNL1     0.0236
     38 C         -2.139239   1.508304   -0.467145 C.3        1 UNL1     0.1131
     39 C         -1.256088   2.239157   0.622885 C.3        1 UNL1     0.0200
     40 C         0.361202   2.534402   0.340675 C.3        1 UNL1     0.0661
     41 C         1.498695   1.398856   -0.201778 C.3        1 UNL1     0.0091
     42 C         2.98203   1.612457   -1.25984 C.3        1 UNL1     0.0661
     43 C         4.586419   3.820889   -9.541032 C.2        1 UNL1     0.2131
     44 O         4.656153   3.996041   -10.744026 O.2        1 UNL1     -0.2851
     45 O         3.460061   6.277245   -10.291041 O.3        1 UNL1     -0.5056
     46 O         2.184755   3.654084   -4.479872 O.2        1 UNL1     -0.2836
     47 C         4.882006   3.445192   -0.873848 C.3        1 UNL1     -0.0566
     48 O         3.870584   0.827036   -0.369502 O.3        1 UNL1     -0.3909
     49 C         0.765035   0.178509   -0.711671 C.3        1 UNL1     -0.0577
     50 O         0.535049   3.757967   -0.345175 O.3        1 UNL1     -0.3910
     51 O         -2.139934   4.30392   -1.164474 O.3        1 UNL1     -0.3753
     52 C         -0.982148   1.220748   -2.969372 C.3        1 UNL1     -0.0564
     53 O         -2.383226   0.042597   -0.256197 O.3        1 UNL1     -0.4608
     54 C         -2.173192   -0.638015   0.914522 C.2        1 UNL1     0.3042
     55 O         -1.229208   -1.377746   1.189353 O.2        1 UNL1     -0.2512
     56 C         -3.215692   -0.368702   1.96208 C.3        1 UNL1     0.0332
     57 C         -2.134048   3.425985   1.238353 C.3        1 UNL1     -0.0567
     58 C         -0.616885   4.337474   -6.073883 C.3        1 UNL1     0.0210
     59 C         -1.335877   5.478343   -1.264926 C.3        1 UNL1     0.0372
     60 C         -1.065799   4.013043   -3.207626 C.2        1 UNL1     -0.0208
     61 C         -0.330992   5.122001   -3.112678 C.2        1 UNL1     0.0882
     62 H         3.569663   3.236115   -2.552646 H        1 UNL1     0.0365
     63 H         4.821802   3.587769   -4.127039 H        1 UNL1     0.0576
     64 H         7.394063   1.905853   -3.900306 H        1 UNL1     0.0615
     65 H         6.303237   3.837863   -6.099236 H        1 UNL1     0.0622
     66 H         -3.064051   3.581544   -2.832212 H        1 UNL1     0.0645
     67 H         -2.930449   1.502189   -2.433914 H        1 UNL1     0.0362
     68 H         -3.170773   1.843293   -0.279415 H        1 UNL1     0.0741
     69 H         -1.233551   1.631085   1.517395 H        1 UNL1     0.0359
     70 H         0.699489   2.745565   1.373163 H        1 UNL1     0.0600
     71 H         1.882933   1.030893   0.769779 H        1 UNL1     0.0348
     72 H         2.739305   2.612612   -0.872426 H        1 UNL1     0.0602
     73 H         -1.03789   3.432443   -4.096092 H        1 UNL1     0.0628
     74 H         -0.259131   5.739278   -2.216552 H        1 UNL1     0.1022
     75 H         9.991447   2.156816   -6.681532 H        1 UNL1     0.0279
     76 H         9.057449   0.969707   -7.501116 H        1 UNL1     0.0279
     77 H         9.622866   2.47852   -8.325182 H        1 UNL1     0.0279
     78 H         6.920119   1.588321   -8.94384 H        1 UNL1     0.1553
     79 H         6.202435   0.57872   -7.397276 H        1 UNL1     0.1484
     80 H         2.857426   -0.741345   -6.169337 H        1 UNL1     0.0317
     81 H         3.041079   0.107521   -7.697611 H        1 UNL1     0.0317
     82 H         5.217659   -1.055538   -8.14872 H        1 UNL1     0.0428
     83 H         3.893244   -2.171643   -7.899847 H        1 UNL1     0.0428
     84 H         6.490014   -1.530271   -4.590985 H        1 UNL1     0.0428
     85 H         6.878292   -0.683888   -6.047693 H        1 UNL1     0.0428
     86 H         5.672452   0.600336   -4.280897 H        1 UNL1     0.0317
     87 H         4.320398   -0.435715   -4.310866 H        1 UNL1     0.0317
     88 H         6.41419   -3.121464   -7.56605 H        1 UNL1     0.0429
     89 H         6.6704   -3.5173   -5.864902 H        1 UNL1     0.0429
     90 H         4.597885   -4.490486   -7.81437 H        1 UNL1     0.0308
     91 H         6.557117   -5.729259   -6.301145 H        1 UNL1     0.0233
     92 H         5.116138   -5.988208   -5.28526 H        1 UNL1     0.0233
     93 H         5.152157   -6.579922   -6.932433 H        1 UNL1     0.0233
     94 H         3.734121   -4.223925   -4.939911 H        1 UNL1     0.0233
     95 H         3.354073   -3.00313   -6.164473 H        1 UNL1     0.0233
     96 H         2.7634   -4.669722   -6.358297 H        1 UNL1     0.0233
     97 H         0.144298   7.274585   -8.788713 H        1 UNL1     0.0280
     98 H         1.33121   8.429148   -8.245197 H        1 UNL1     0.0280
     99 H         1.4522   7.740846   -9.891809 H        1 UNL1     0.0280
     100 H         4.393687   6.343983   -10.38856 H        1 UNL1     0.2922
     101 H         4.090296   3.587948   -0.138679 H        1 UNL1     0.0236
     102 H         5.337516   4.38866   -1.17278 H        1 UNL1     0.0236
     103 H         5.677007   2.909627   -0.328562 H        1 UNL1     0.0236
     104 H         4.256555   1.445013   0.281729 H        1 UNL1     0.2098
     105 H         0.292653   0.311222   -1.68175 H        1 UNL1     0.0234
     106 H         1.348317   -0.742105   -0.698301 H        1 UNL1     0.0234
     107 H         0.0   -0.0   0.0 H        1 UNL1     0.0234
     108 H         -0.237201   4.31882   -0.138191 H        1 UNL1     0.2098
     109 H         -1.455898   0.874453   -3.89854 H        1 UNL1     0.0234
     110 H         -0.117483   1.848308   -3.210751 H        1 UNL1     0.0234
     111 H         -0.541682   0.3263   -2.509046 H        1 UNL1     0.0234
     112 H         -3.513252   -1.306606   2.440766 H        1 UNL1     0.0342
     113 H         -2.876615   0.356379   2.700407 H        1 UNL1     0.0342
     114 H         -4.100948   0.051418   1.465102 H        1 UNL1     0.0342
     115 H         -1.889923   3.609652   2.293747 H        1 UNL1     0.0234
     116 H         -2.032134   4.374776   0.707826 H        1 UNL1     0.0234
     117 H         -3.209478   3.18783   1.306715 H        1 UNL1     0.0234
     118 H         -1.595992   4.490986   -5.587273 H        1 UNL1     0.0309
     119 H         -0.717522   4.523919   -7.147807 H        1 UNL1     0.0309
     120 H         -0.44817   3.260278   -5.96763 H        1 UNL1     0.0309
     121 H         -0.3327   5.221059   -0.926108 H        1 UNL1     0.0524
     122 H         -1.252844   5.84099   -2.303016 H        1 UNL1     0.0524
     123 H         -1.748675   6.27047   -0.646682 H        1 UNL1     0.0524
@<TRIPOS>BOND
     1     1     2    1
     2     1    42    1
     3     2     3    2
     4     3     4    1
     5     4     5    2
     6     5     7    1
     7     6    75    1
     8     6    76    1
     9     6    77    1
    10     7     9   am
    11     9    10    1
    12    10    11    2
    13    10    43    1
    14    11    14    1
    15    11    15    1
    16    12    13   ar
    17    12    27   ar
    18    12    43    1
    19    13    14    1
    20    13    30   ar
    21    14    17    2
    22    15    16    1
    23    16    17    1
    24    16    18    1
    25    16    22    1
    26    18    19    1
    27    19    20    1
    28    20    21    1
    29    21    22    1
    30    23    24    1
    31    23    88    1
    32    23    89    1
    33    24    25    1
    34    24    26    1
    35    24    90    1
    36    25    91    1
    37    25    92    1
    38    25    93    1
    39    26    94    1
    40    26    95    1
    41    26    96    1
    42    27    28   ar
    43    28    29   ar
    44    29    30   ar
    45    29    31    1
    46    30    33    1
    47    31    32    1
    48    32    33    1
    49    32    35    1
    50    34    97    1
    51    34    98    1
    52    34    99    1
    53    35    61    1
    54    36    37    1
    55    36    60    1
    56    37    38    1
    57    38    39    1
    58    39    40    1
    59    40    41    1
    60    41    42    1
    61    45   100    1
    62    47   101    1
    63    47   102    1
    64    47   103    1
    65    48   104    1
    66    49   105    1
    67    49   106    1
    68    49   107    1
    69    50   108    1
    70    51    59    1
    71    52   109    1
    72    52   110    1
    73    52   111    1
    74    53    54    1
    75    54    55    2
    76    54    56    1
    77    56   112    1
    78    56   113    1
    79    56   114    1
    80    57   115    1
    81    57   116    1
    82    57   117    1
    83    58   118    1
    84    58   119    1
    85    58   120    1
    86    59   121    1
    87    59   122    1
    88    59   123    1
    89    60    61    2
    90     1    47    1
    91     1    62    1
    92     2    63    1
    93     3    64    1
    94     4    65    1
    95     5     6    1
    96     7     8    2
    97     9    78    1
    98    15    79    1
    99    18    80    1
   100    18    81    1
   101    19    82    1
   102    19    83    1
   103    20    23    1
   104    21    84    1
   105    21    85    1
   106    22    86    1
   107    22    87    1
   108    27    45    1
   109    28    34    1
   110    32    58    1
   111    33    46    2
   112    36    51    1
   113    36    66    1
   114    37    52    1
   115    37    67    1
   116    38    53    1
   117    38    68    1
   118    42    48    1
   119    42    72    1
   120    43    44    2
   121    60    73    1
   122    61    74    1
   123    39    69    1
   124    39    57    1
   125    40    70    1
   126    40    50    1
   127    41    71    1
   128    41    49    1
