@<TRIPOS>MOLECULE
*****
 123 128 0 0 0
SMALL
GASTEIGER

@<TRIPOS>ATOM
     1 C         5.170516   1.741768   0.480914 C.3        1 UNL1     0.0009
     2 C         6.606712   2.545585   -0.372465 C.2        1 UNL1     -0.0787
     3 C         7.887191   2.445387   -1.040583 C.2        1 UNL1     -0.0649
     4 C         8.764924   3.67903   -1.798254 C.2        1 UNL1     -0.0542
     5 C         9.783578   3.969933   -2.738891 C.2        1 UNL1     0.0115
     6 C         10.909266   3.342623   -3.606435 C.3        1 UNL1     -0.0348
     7 C         9.879832   5.452847   -3.346089 C.2        1 UNL1     0.2441
     8 O         10.705571   6.273477   -2.970259 O.2        1 UNL1     -0.2702
     9 N         9.127685   5.660456   -4.515416 N.am        1 UNL1     -0.2772
     10 C         7.846105   6.049029   -4.199368 C.2        1 UNL1     0.1049
     11 C         6.999523   5.078895   -3.905499 C.2        1 UNL1     0.0801
     12 C         6.552621   7.657971   -2.786732 C.ar        1 UNL1     0.0753
     13 C         5.792843   6.531267   -2.337417 C.ar        1 UNL1     0.0305
     14 C         5.906737   5.225182   -2.982572 C.2        1 UNL1     0.0924
     15 N         7.119993   3.749693   -4.064359 N.pl3        1 UNL1     -0.3170
     16 C         5.849899   3.152399   -3.747574 C.3        1 UNL1     0.1275
     17 N         5.216684   4.108855   -2.766781 N.2        1 UNL1     -0.2557
     18 C         4.994743   3.212221   -5.009648 C.3        1 UNL1     0.0016
     19 C         5.746535   2.526691   -6.139448 C.3        1 UNL1     0.0026
     20 N         6.015489   1.148348   -5.753624 N.3        1 UNL1     -0.3018
     21 C         6.780966   0.987318   -4.515689 C.3        1 UNL1     0.0026
     22 C         6.005305   1.679307   -3.393461 C.3        1 UNL1     0.0016
     23 C         6.456755   0.32781   -6.86387 C.3        1 UNL1     0.0012
     24 C         5.299107   0.079605   -7.843667 C.3        1 UNL1     -0.0339
     25 C         5.333973   1.071298   -9.01814 C.3        1 UNL1     -0.0615
     26 C         5.32529   -1.360098   -8.326729 C.3        1 UNL1     -0.0615
     27 C         6.350747   8.926134   -2.247171 C.ar        1 UNL1     0.1347
     28 C         5.393883   9.197348   -1.285451 C.ar        1 UNL1     0.0342
     29 C         4.691617   8.064035   -0.823296 C.ar        1 UNL1     0.1435
     30 C         4.908319   6.781529   -1.328706 C.ar        1 UNL1     0.0774
     31 O         3.652403   8.179346   0.032125 O.3        1 UNL1     -0.4436
     32 C         2.928743   6.947482   -0.108237 C.3        1 UNL1     0.3143
     33 C         3.939647   5.952783   -0.641958 C.2        1 UNL1     0.2504
     34 C         4.949782   10.564226   -0.844407 C.3        1 UNL1     -0.0327
     35 O         2.569997   6.511743   1.208837 O.2        1 UNL1     -0.4528
     36 C         -0.676482   4.583935   0.818937 C.3        1 UNL1     0.0854
     37 C         -0.985244   3.323463   -0.077388 C.3        1 UNL1     0.0236
     38 C         -1.586056   2.063532   0.712133 C.3        1 UNL1     0.1131
     39 C         -0.858567   1.532045   2.012345 C.3        1 UNL1     0.0200
     40 C         0.802496   1.384202   2.050409 C.3        1 UNL1     0.0661
     41 C         1.758572   0.613626   0.880049 C.3        1 UNL1     0.0091
     42 C         3.465587   0.973606   0.312673 C.3        1 UNL1     0.0661
     43 C         7.500241   7.448551   -3.909416 C.2        1 UNL1     0.2131
     44 O         7.900007   8.345817   -4.629026 O.2        1 UNL1     -0.2851
     45 O         7.16358   9.959947   -2.707573 O.3        1 UNL1     -0.5056
     46 O         3.954209   4.749273   -0.510782 O.2        1 UNL1     -0.2836
     47 C         5.569015   1.31225   1.918514 C.3        1 UNL1     -0.0566
     48 O         3.912341   -0.438093   0.394111 O.3        1 UNL1     -0.3909
     49 C         0.921705   0.381756   -0.358249 C.3        1 UNL1     -0.0577
     50 O         1.405136   2.601367   2.441635 O.3        1 UNL1     -0.3910
     51 O         -0.798186   4.39493   2.210661 O.3        1 UNL1     -0.3753
     52 C         0.056791   3.161125   -1.231839 C.3        1 UNL1     -0.0564
     53 O         -2.191817   1.025068   -0.186182 O.3        1 UNL1     -0.4608
     54 C         -2.4274   -0.281235   0.154413 C.2        1 UNL1     0.3042
     55 O         -1.860529   -1.281314   -0.284149 O.2        1 UNL1     -0.2512
     56 C         -3.465607   -0.445045   1.227729 C.3        1 UNL1     0.0332
     57 C         -1.576259   2.202496   3.274719 C.3        1 UNL1     -0.0567
     58 C         1.851828   7.193682   -1.190442 C.3        1 UNL1     0.0210
     59 C         -1.10833   5.574637   2.95091 C.3        1 UNL1     0.0372
     60 C         0.652948   5.211082   0.585562 C.2        1 UNL1     -0.0208
     61 C         1.568144   5.645354   1.453069 C.2        1 UNL1     0.0882
     62 H         4.696136   2.726635   0.56873 H        1 UNL1     0.0365
     63 H         6.342135   3.599793   -0.267037 H        1 UNL1     0.0576
     64 H         8.343074   1.47782   -1.26215 H        1 UNL1     0.0615
     65 H         8.279781   4.59523   -1.450842 H        1 UNL1     0.0622
     66 H         -1.42068   5.331389   0.509862 H        1 UNL1     0.0645
     67 H         -1.851524   3.633814   -0.687143 H        1 UNL1     0.0362
     68 H         -2.531843   2.501857   1.065517 H        1 UNL1     0.0741
     69 H         -1.191126   0.521482   2.208749 H        1 UNL1     0.0359
     70 H         0.915032   0.724036   2.931645 H        1 UNL1     0.0600
     71 H         1.801545   -0.407444   1.307281 H        1 UNL1     0.0348
     72 H         3.362257   1.462315   1.292368 H        1 UNL1     0.0602
     73 H         0.76914   5.407788   -0.451286 H        1 UNL1     0.0628
     74 H         1.552347   5.435105   2.523015 H        1 UNL1     0.1022
     75 H         10.933839   2.233966   -3.474867 H        1 UNL1     0.0279
     76 H         10.807161   3.448424   -4.684141 H        1 UNL1     0.0279
     77 H         11.91618   3.623857   -3.264775 H        1 UNL1     0.0279
     78 H         9.063468   4.790403   -5.039782 H        1 UNL1     0.1553
     79 H         7.783485   3.320547   -4.682862 H        1 UNL1     0.1484
     80 H         4.03315   2.722702   -4.813496 H        1 UNL1     0.0317
     81 H         4.769065   4.249191   -5.280601 H        1 UNL1     0.0317
     82 H         6.677463   3.056602   -6.389408 H        1 UNL1     0.0428
     83 H         5.119757   2.58238   -7.030009 H        1 UNL1     0.0428
     84 H         6.900421   -0.055688   -4.206364 H        1 UNL1     0.0428
     85 H         7.811372   1.353873   -4.621611 H        1 UNL1     0.0428
     86 H         6.523113   1.428556   -2.486274 H        1 UNL1     0.0317
     87 H         5.025435   1.203084   -3.266323 H        1 UNL1     0.0317
     88 H         7.252564   0.8683   -7.392881 H        1 UNL1     0.0429
     89 H         6.888699   -0.618436   -6.51342 H        1 UNL1     0.0429
     90 H         4.347254   0.200206   -7.312965 H        1 UNL1     0.0308
     91 H         6.286047   1.018992   -9.554723 H        1 UNL1     0.0233
     92 H         4.517468   0.872203   -9.716201 H        1 UNL1     0.0233
     93 H         5.209919   2.110703   -8.690905 H        1 UNL1     0.0233
     94 H         4.629021   -1.490905   -9.162154 H        1 UNL1     0.0233
     95 H         6.327765   -1.61753   -8.679907 H        1 UNL1     0.0233
     96 H         5.042914   -2.053629   -7.529706 H        1 UNL1     0.0233
     97 H         4.151484   10.515969   -0.109817 H        1 UNL1     0.0280
     98 H         5.761811   11.129831   -0.36906 H        1 UNL1     0.0280
     99 H         4.58404   11.132322   -1.71538 H        1 UNL1     0.0280
     100 H         6.696997   10.711613   -3.028384 H        1 UNL1     0.2922
     101 H         4.706565   0.880003   2.425465 H        1 UNL1     0.0236
     102 H         6.022024   2.117181   2.496314 H        1 UNL1     0.0236
     103 H         6.324141   0.508526   1.91627 H        1 UNL1     0.0236
     104 H         4.333052   -0.564434   1.267043 H        1 UNL1     0.2098
     105 H         0.709214   1.280669   -0.931499 H        1 UNL1     0.0234
     106 H         1.288739   -0.407025   -1.014784 H        1 UNL1     0.0234
     107 H         0.0   -0.0   0.0 H        1 UNL1     0.0234
     108 H         1.211565   3.257965   1.745088 H        1 UNL1     0.2098
     109 H         1.083658   3.058752   -0.853982 H        1 UNL1     0.0234
     110 H         -0.171435   2.326476   -1.903418 H        1 UNL1     0.0234
     111 H         0.069155   4.038444   -1.892221 H        1 UNL1     0.0234
     112 H         -3.590022   -1.505661   1.466391 H        1 UNL1     0.0342
     113 H         -3.226184   0.130834   2.120413 H        1 UNL1     0.0342
     114 H         -4.423251   -0.072862   0.838418 H        1 UNL1     0.0342
     115 H         -2.646153   1.955725   3.314963 H        1 UNL1     0.0234
     116 H         -1.138354   1.922488   4.234867 H        1 UNL1     0.0234
     117 H         -1.613416   3.304386   3.225748 H        1 UNL1     0.0234
     118 H         0.951599   7.680589   -0.776298 H        1 UNL1     0.0309
     119 H         2.219971   7.782132   -2.036846 H        1 UNL1     0.0309
     120 H         1.462251   6.26214   -1.615372 H        1 UNL1     0.0309
     121 H         -0.286567   6.276607   2.811987 H        1 UNL1     0.0524
     122 H         -2.028135   6.064823   2.590753 H        1 UNL1     0.0524
     123 H         -1.224616   5.337457   4.004626 H        1 UNL1     0.0524
@<TRIPOS>BOND
     1     1     2    1
     2     1    42    1
     3     2     3    2
     4     3     4    1
     5     4     5    2
     6     5     7    1
     7     6    75    1
     8     6    76    1
     9     6    77    1
    10     7     9   am
    11     9    10    1
    12    10    11    2
    13    10    43    1
    14    11    14    1
    15    11    15    1
    16    12    13   ar
    17    12    27   ar
    18    12    43    1
    19    13    14    1
    20    13    30   ar
    21    14    17    2
    22    15    16    1
    23    16    17    1
    24    16    18    1
    25    16    22    1
    26    18    19    1
    27    19    20    1
    28    20    21    1
    29    21    22    1
    30    23    24    1
    31    23    88    1
    32    23    89    1
    33    24    25    1
    34    24    26    1
    35    24    90    1
    36    25    91    1
    37    25    92    1
    38    25    93    1
    39    26    94    1
    40    26    95    1
    41    26    96    1
    42    27    28   ar
    43    28    29   ar
    44    29    30   ar
    45    29    31    1
    46    30    33    1
    47    31    32    1
    48    32    33    1
    49    32    35    1
    50    34    97    1
    51    34    98    1
    52    34    99    1
    53    35    61    1
    54    36    37    1
    55    36    60    1
    56    37    38    1
    57    38    39    1
    58    39    40    1
    59    40    41    1
    60    41    42    1
    61    45   100    1
    62    47   101    1
    63    47   102    1
    64    47   103    1
    65    48   104    1
    66    49   105    1
    67    49   106    1
    68    49   107    1
    69    50   108    1
    70    51    59    1
    71    52   109    1
    72    52   110    1
    73    52   111    1
    74    53    54    1
    75    54    55    2
    76    54    56    1
    77    56   112    1
    78    56   113    1
    79    56   114    1
    80    57   115    1
    81    57   116    1
    82    57   117    1
    83    58   118    1
    84    58   119    1
    85    58   120    1
    86    59   121    1
    87    59   122    1
    88    59   123    1
    89    60    61    2
    90     1    47    1
    91     1    62    1
    92     2    63    1
    93     3    64    1
    94     4    65    1
    95     5     6    1
    96     7     8    2
    97     9    78    1
    98    15    79    1
    99    18    80    1
   100    18    81    1
   101    19    82    1
   102    19    83    1
   103    20    23    1
   104    21    84    1
   105    21    85    1
   106    22    86    1
   107    22    87    1
   108    27    45    1
   109    28    34    1
   110    32    58    1
   111    33    46    2
   112    36    51    1
   113    36    66    1
   114    37    52    1
   115    37    67    1
   116    38    53    1
   117    38    68    1
   118    42    48    1
   119    42    72    1
   120    43    44    2
   121    60    73    1
   122    61    74    1
   123    39    69    1
   124    39    57    1
   125    40    70    1
   126    40    50    1
   127    41    71    1
   128    41    49    1
