@<TRIPOS>MOLECULE
*****
 123 128 0 0 0
SMALL
GASTEIGER

@<TRIPOS>ATOM
     1 C         3.720509   -2.118313   2.185017 C.3        1 UNL1     0.0009
     2 C         4.637983   -3.728564   2.136349 C.2        1 UNL1     -0.0787
     3 C         4.746963   -5.123807   2.507115 C.2        1 UNL1     -0.0649
     4 C         5.906654   -6.247919   1.999329 C.2        1 UNL1     -0.0542
     5 C         6.205289   -7.625841   1.860673 C.2        1 UNL1     0.0115
     6 C         5.730985   -9.057926   2.231473 C.3        1 UNL1     -0.0348
     7 C         7.391215   -8.06819   0.873304 C.2        1 UNL1     0.2441
     8 O         8.501097   -8.39478   1.270829 O.2        1 UNL1     -0.2702
     9 N         6.994413   -8.306653   -0.454037 N.am        1 UNL1     -0.2772
     10 C         7.039916   -7.142047   -1.185436 C.2        1 UNL1     0.1049
     11 C         5.988927   -6.348877   -1.082842 C.2        1 UNL1     0.0801
     12 C         8.510247   -5.189106   -1.715986 C.ar        1 UNL1     0.0753
     13 C         7.391577   -4.358154   -1.389329 C.ar        1 UNL1     0.0305
     14 C         6.056201   -4.916567   -1.189333 C.2        1 UNL1     0.0924
     15 N         4.780146   -6.582027   -0.543381 N.pl3        1 UNL1     -0.3170
     16 C         3.940277   -5.452667   -0.842413 C.3        1 UNL1     0.1275
     17 N         4.898802   -4.295225   -0.981279 N.2        1 UNL1     -0.2557
     18 C         3.350348   -5.68284   -2.230471 C.3        1 UNL1     0.0016
     19 C         2.628584   -7.020977   -2.236372 C.3        1 UNL1     0.0026
     20 N         1.584616   -6.993836   -1.221275 N.3        1 UNL1     -0.3018
     21 C         2.048096   -6.717188   0.139982 C.3        1 UNL1     0.0026
     22 C         2.765981   -5.366533   0.123588 C.3        1 UNL1     0.0016
     23 C         0.650146   -8.094925   -1.343795 C.3        1 UNL1     0.0012
     24 C         -0.227486   -7.920057   -2.59317 C.3        1 UNL1     -0.0339
     25 C         0.266653   -8.797754   -3.754864 C.3        1 UNL1     -0.0615
     26 C         -1.679729   -8.207518   -2.253854 C.3        1 UNL1     -0.0615
     27 C         9.752427   -4.6391   -2.023557 C.ar        1 UNL1     0.1347
     28 C         9.986339   -3.276522   -2.075679 C.ar        1 UNL1     0.0342
     29 C         8.883473   -2.479155   -1.70278 C.ar        1 UNL1     0.1435
     30 C         7.643189   -3.017194   -1.357193 C.ar        1 UNL1     0.0774
     31 O         8.919323   -1.132862   -1.808691 O.3        1 UNL1     -0.4436
     32 C         7.54076   -0.732318   -1.80958 C.3        1 UNL1     0.3143
     33 C         6.799132   -1.863469   -1.126427 C.2        1 UNL1     0.2504
     34 C         11.212597   -2.613324   -2.638315 C.3        1 UNL1     -0.0327
     35 O         7.429729   0.414148   -0.957206 O.2        1 UNL1     -0.4528
     36 C         4.56254   2.473918   -2.351717 C.3        1 UNL1     0.0854
     37 C         3.061469   2.05559   -2.59526 C.3        1 UNL1     0.0236
     38 C         1.973905   2.99776   -1.88726 C.3        1 UNL1     0.1131
     39 C         2.110042   3.33432   -0.347629 C.3        1 UNL1     0.0200
     40 C         2.505813   2.139204   0.746674 C.3        1 UNL1     0.0661
     41 C         1.758891   0.621465   0.87389 C.3        1 UNL1     0.0091
     42 C         2.445982   -1.004989   1.371842 C.3        1 UNL1     0.0661
     43 C         8.281061   -6.652668   -1.803839 C.2        1 UNL1     0.2131
     44 O         8.999771   -7.410059   -2.430378 O.2        1 UNL1     -0.2851
     45 O         10.800539   -5.519037   -2.285494 O.3        1 UNL1     -0.5056
     46 O         5.757423   -1.818294   -0.511077 O.2        1 UNL1     -0.2836
     47 C         3.887149   -1.444468   3.573594 C.3        1 UNL1     -0.0566
     48 O         1.33634   -1.316039   2.305148 O.3        1 UNL1     -0.3909
     49 C         0.918687   0.385977   -0.361463 C.3        1 UNL1     -0.0577
     50 O         3.908404   1.997522   0.848597 O.3        1 UNL1     -0.3910
     51 O         4.770246   3.504335   -1.412286 O.3        1 UNL1     -0.3753
     52 C         2.894678   0.502559   -2.667541 C.3        1 UNL1     -0.0564
     53 O         0.579901   2.801817   -2.407536 O.3        1 UNL1     -0.4608
     54 C         -0.570995   3.138899   -1.744404 C.2        1 UNL1     0.3042
     55 O         -1.365242   2.37818   -1.192753 O.2        1 UNL1     -0.2512
     56 C         -0.808687   4.620196   -1.667105 C.3        1 UNL1     0.0332
     57 C         2.868471   4.737221   -0.225851 C.3        1 UNL1     -0.0567
     58 C         7.103586   -0.672533   -3.291752 C.3        1 UNL1     0.0210
     59 C         5.958902   4.267691   -1.612906 C.3        1 UNL1     0.0372
     60 C         5.472766   1.358643   -1.973815 C.2        1 UNL1     -0.0208
     61 C         6.409073   1.290188   -1.026509 C.2        1 UNL1     0.0882
     62 H         4.487176   -1.683749   1.532263 H        1 UNL1     0.0365
     63 H         5.537849   -3.433805   1.592449 H        1 UNL1     0.0576
     64 H         3.950143   -5.635302   3.051688 H        1 UNL1     0.0615
     65 H         6.685651   -5.630827   1.543431 H        1 UNL1     0.0622
     66 H         4.912316   2.829648   -3.331084 H        1 UNL1     0.0645
     67 H         2.889064   2.28415   -3.661373 H        1 UNL1     0.0362
     68 H         2.180105   3.943134   -2.411924 H        1 UNL1     0.0741
     69 H         1.153663   3.683508   0.018179 H        1 UNL1     0.0359
     70 H         2.208951   2.637775   1.689203 H        1 UNL1     0.0600
     71 H         0.979099   0.852228   1.625975 H        1 UNL1     0.0348
     72 H         3.147467   -0.24946   1.754477 H        1 UNL1     0.0602
     73 H         5.376392   0.573826   -2.68235 H        1 UNL1     0.0628
     74 H         6.534422   2.023589   -0.229234 H        1 UNL1     0.1022
     75 H         4.752319   -9.020133   2.767961 H        1 UNL1     0.0279
     76 H         5.517659   -9.72832   1.401935 H        1 UNL1     0.0279
     77 H         6.373074   -9.536733   2.985241 H        1 UNL1     0.0279
     78 H         6.032901   -8.640346   -0.468896 H        1 UNL1     0.1553
     79 H         4.41497   -7.50064   -0.370959 H        1 UNL1     0.1484
     80 H         2.667771   -4.858543   -2.470033 H        1 UNL1     0.0317
     81 H         4.134258   -5.673027   -2.99535 H        1 UNL1     0.0317
     82 H         3.321945   -7.858283   -2.068793 H        1 UNL1     0.0428
     83 H         2.217187   -7.165913   -3.23577 H        1 UNL1     0.0428
     84 H         1.237106   -6.623251   0.868874 H        1 UNL1     0.0428
     85 H         2.668195   -7.533942   0.534581 H        1 UNL1     0.0428
     86 H         2.972455   -5.135867   1.152252 H        1 UNL1     0.0317
     87 H         2.069066   -4.575414   -0.178963 H        1 UNL1     0.0317
     88 H         1.227501   -9.022728   -1.449329 H        1 UNL1     0.0429
     89 H         0.03612   -8.199269   -0.439992 H        1 UNL1     0.0429
     90 H         -0.195993   -6.870929   -2.910269 H        1 UNL1     0.0308
     91 H         0.294503   -9.854125   -3.471304 H        1 UNL1     0.0233
     92 H         -0.376345   -8.678164   -4.629999 H        1 UNL1     0.0233
     93 H         1.278946   -8.528892   -4.080151 H        1 UNL1     0.0233
     94 H         -2.267117   -8.319018   -3.171666 H        1 UNL1     0.0233
     95 H         -1.75391   -9.14193   -1.690531 H        1 UNL1     0.0233
     96 H         -2.117731   -7.401058   -1.65909 H        1 UNL1     0.0233
     97 H         11.110209   -1.532919   -2.676673 H        1 UNL1     0.0280
     98 H         12.105097   -2.809202   -2.029767 H        1 UNL1     0.0280
     99 H         11.393553   -2.979845   -3.66204 H        1 UNL1     0.0280
     100 H         11.283426   -5.330053   -3.070814 H        1 UNL1     0.2922
     101 H         3.4783   -0.434713   3.543692 H        1 UNL1     0.0236
     102 H         4.914229   -1.459255   3.936733 H        1 UNL1     0.0236
     103 H         3.304958   -1.959064   4.356178 H        1 UNL1     0.0236
     104 H         1.57374   -0.947974   3.178726 H        1 UNL1     0.2098
     105 H         0.700092   1.283996   -0.933816 H        1 UNL1     0.0234
     106 H         1.286955   -0.401044   -1.019418 H        1 UNL1     0.0234
     107 H         0.0   -0.0   0.0 H        1 UNL1     0.0234
     108 H         4.22523   1.630211   0.00097 H        1 UNL1     0.2098
     109 H         3.235382   0.004409   -1.749129 H        1 UNL1     0.0234
     110 H         1.869964   0.189885   -2.895443 H        1 UNL1     0.0234
     111 H         3.492357   0.068708   -3.480251 H        1 UNL1     0.0234
     112 H         -1.728546   4.820914   -1.109505 H        1 UNL1     0.0342
     113 H         0.036884   5.148347   -1.229028 H        1 UNL1     0.0342
     114 H         -0.944841   4.999631   -2.689189 H        1 UNL1     0.0342
     115 H         2.385406   5.516538   -0.831245 H        1 UNL1     0.0234
     116 H         2.943033   5.114338   0.796045 H        1 UNL1     0.0234
     117 H         3.882901   4.728061   -0.66035 H        1 UNL1     0.0234
     118 H         7.383218   0.283374   -3.768253 H        1 UNL1     0.0309
     119 H         7.498508   -1.499875   -3.88987 H        1 UNL1     0.0309
     120 H         6.015041   -0.705043   -3.410576 H        1 UNL1     0.0309
     121 H         6.253272   4.679196   -0.647833 H        1 UNL1     0.0524
     122 H         6.795718   3.650246   -1.979701 H        1 UNL1     0.0524
     123 H         5.775247   5.069798   -2.322124 H        1 UNL1     0.0524
@<TRIPOS>BOND
     1     1     2    1
     2     1    42    1
     3     2     3    2
     4     3     4    1
     5     4     5    2
     6     5     7    1
     7     6    75    1
     8     6    76    1
     9     6    77    1
    10     7     9   am
    11     9    10    1
    12    10    11    2
    13    10    43    1
    14    11    14    1
    15    11    15    1
    16    12    13   ar
    17    12    27   ar
    18    12    43    1
    19    13    14    1
    20    13    30   ar
    21    14    17    2
    22    15    16    1
    23    16    17    1
    24    16    18    1
    25    16    22    1
    26    18    19    1
    27    19    20    1
    28    20    21    1
    29    21    22    1
    30    23    24    1
    31    23    88    1
    32    23    89    1
    33    24    25    1
    34    24    26    1
    35    24    90    1
    36    25    91    1
    37    25    92    1
    38    25    93    1
    39    26    94    1
    40    26    95    1
    41    26    96    1
    42    27    28   ar
    43    28    29   ar
    44    29    30   ar
    45    29    31    1
    46    30    33    1
    47    31    32    1
    48    32    33    1
    49    32    35    1
    50    34    97    1
    51    34    98    1
    52    34    99    1
    53    35    61    1
    54    36    37    1
    55    36    60    1
    56    37    38    1
    57    38    39    1
    58    39    40    1
    59    40    41    1
    60    41    42    1
    61    45   100    1
    62    47   101    1
    63    47   102    1
    64    47   103    1
    65    48   104    1
    66    49   105    1
    67    49   106    1
    68    49   107    1
    69    50   108    1
    70    51    59    1
    71    52   109    1
    72    52   110    1
    73    52   111    1
    74    53    54    1
    75    54    55    2
    76    54    56    1
    77    56   112    1
    78    56   113    1
    79    56   114    1
    80    57   115    1
    81    57   116    1
    82    57   117    1
    83    58   118    1
    84    58   119    1
    85    58   120    1
    86    59   121    1
    87    59   122    1
    88    59   123    1
    89    60    61    2
    90     1    47    1
    91     1    62    1
    92     2    63    1
    93     3    64    1
    94     4    65    1
    95     5     6    1
    96     7     8    2
    97     9    78    1
    98    15    79    1
    99    18    80    1
   100    18    81    1
   101    19    82    1
   102    19    83    1
   103    20    23    1
   104    21    84    1
   105    21    85    1
   106    22    86    1
   107    22    87    1
   108    27    45    1
   109    28    34    1
   110    32    58    1
   111    33    46    2
   112    36    51    1
   113    36    66    1
   114    37    52    1
   115    37    67    1
   116    38    53    1
   117    38    68    1
   118    42    48    1
   119    42    72    1
   120    43    44    2
   121    60    73    1
   122    61    74    1
   123    39    69    1
   124    39    57    1
   125    40    70    1
   126    40    50    1
   127    41    71    1
   128    41    49    1
