@<TRIPOS>MOLECULE
*****
 123 128 0 0 0
SMALL
GASTEIGER

@<TRIPOS>ATOM
     1 C         5.198219   1.59676   0.654333 C.3        1 UNL1     0.0009
     2 C         6.687363   2.350133   -0.15308 C.2        1 UNL1     -0.0787
     3 C         7.987835   2.206283   -0.772858 C.2        1 UNL1     -0.0649
     4 C         8.928186   3.406353   -1.509016 C.2        1 UNL1     -0.0542
     5 C         9.988449   3.658205   -2.414273 C.2        1 UNL1     0.0115
     6 C         11.126173   2.989928   -3.23422 C.3        1 UNL1     -0.0348
     7 C         10.14997   5.131489   -3.030985 C.2        1 UNL1     0.2441
     8 O         10.985082   5.931742   -2.632603 O.2        1 UNL1     -0.2702
     9 N         9.44725   5.34882   -4.228943 N.am        1 UNL1     -0.2772
     10 C         8.166905   5.777369   -3.963646 C.2        1 UNL1     0.1049
     11 C         7.282239   4.835079   -3.692211 C.2        1 UNL1     0.0801
     12 C         6.870379   7.437188   -2.61407 C.ar        1 UNL1     0.0753
     13 C         6.062197   6.337476   -2.182695 C.ar        1 UNL1     0.0305
     14 C         6.161327   5.022171   -2.811343 C.2        1 UNL1     0.0924
     15 N         7.369568   3.501412   -3.834461 N.pl3        1 UNL1     -0.3170
     16 C         6.071897   2.944231   -3.559045 C.3        1 UNL1     0.1275
     17 N         5.431594   3.928451   -2.610864 N.2        1 UNL1     -0.2557
     18 C         5.265344   3.015874   -4.852119 C.3        1 UNL1     0.0016
     19 C         6.037423   2.297523   -5.947316 C.3        1 UNL1     0.0026
     20 N         6.251821   0.915984   -5.539378 N.3        1 UNL1     -0.3018
     21 C         6.966718   0.745523   -4.272795 C.3        1 UNL1     0.0026
     22 C         6.17126   1.47094   -3.186099 C.3        1 UNL1     0.0016
     23 C         6.70906   0.071841   -6.625195 C.3        1 UNL1     0.0012
     24 C         5.581082   -0.152815   -7.644485 C.3        1 UNL1     -0.0339
     25 C         5.677468   0.836918   -8.817172 C.3        1 UNL1     -0.0615
     26 C         5.593689   -1.593164   -8.126163 C.3        1 UNL1     -0.0615
     27 C         6.686099   8.716055   -2.093821 C.ar        1 UNL1     0.1347
     28 C         5.703197   9.02449   -1.170338 C.ar        1 UNL1     0.0342
     29 C         4.951804   7.916644   -0.723964 C.ar        1 UNL1     0.1435
     30 C         5.149233   6.623361   -1.209411 C.ar        1 UNL1     0.0774
     31 O         3.885959   8.070545   0.091693 O.3        1 UNL1     -0.4436
     32 C         3.132244   6.858697   -0.063909 C.3        1 UNL1     0.3143
     33 C         4.132441   5.8299   -0.551142 C.2        1 UNL1     0.2504
     34 C         5.28342   10.40801   -0.758316 C.3        1 UNL1     -0.0327
     35 O         2.713245   6.446871   1.243031 O.2        1 UNL1     -0.4528
     36 C         -0.571771   4.609608   0.751888 C.3        1 UNL1     0.0854
     37 C         -0.884366   3.349531   -0.143664 C.3        1 UNL1     0.0236
     38 C         -1.550023   2.115524   0.634714 C.3        1 UNL1     0.1131
     39 C         -0.886149   1.576505   1.965503 C.3        1 UNL1     0.0200
     40 C         0.767407   1.381226   2.065791 C.3        1 UNL1     0.0661
     41 C         1.742542   0.571567   0.938327 C.3        1 UNL1     0.0091
     42 C         3.47885   0.876405   0.430677 C.3        1 UNL1     0.0661
     43 C         7.851709   7.189151   -3.699302 C.2        1 UNL1     0.2131
     44 O         8.303411   8.06717   -4.411893 O.2        1 UNL1     -0.2851
     45 O         7.544972   9.721278   -2.533485 O.3        1 UNL1     -0.5056
     46 O         4.107091   4.627864   -0.408587 O.2        1 UNL1     -0.2836
     47 C         5.531436   1.170542   2.109422 C.3        1 UNL1     -0.0566
     48 O         3.880956   -0.546689   0.541268 O.3        1 UNL1     -0.3909
     49 C         0.944878   0.351368   -0.327666 C.3        1 UNL1     -0.0577
     50 O         1.390676   2.584417   2.467773 O.3        1 UNL1     -0.3910
     51 O         -0.749502   4.438324   2.139874 O.3        1 UNL1     -0.3753
     52 C         0.193806   3.145509   -1.257606 C.3        1 UNL1     -0.0564
     53 O         -2.152742   1.085893   -0.275735 O.3        1 UNL1     -0.4608
     54 C         -2.426051   -0.213314   0.063812 C.2        1 UNL1     0.3042
     55 O         -1.869178   -1.227573   -0.35453 O.2        1 UNL1     -0.2512
     56 C         -3.496877   -0.349338   1.108581 C.3        1 UNL1     0.0332
     57 C         -1.62943   2.280146   3.194567 C.3        1 UNL1     -0.0567
     58 C         2.103066   7.124848   -1.187067 C.3        1 UNL1     0.0210
     59 C         -1.082775   5.628468   2.852862 C.3        1 UNL1     0.0372
     60 C         0.783006   5.195764   0.561728 C.2        1 UNL1     -0.0208
     61 C         1.678312   5.612251   1.458227 C.2        1 UNL1     0.0882
     62 H         4.749901   2.595735   0.715741 H        1 UNL1     0.0365
     63 H         6.450003   3.412546   -0.06701 H        1 UNL1     0.0576
     64 H         8.423048   1.223775   -0.968757 H        1 UNL1     0.0615
     65 H         8.457667   4.339639   -1.187967 H        1 UNL1     0.0622
     66 H         -1.2821   5.375032   0.408953 H        1 UNL1     0.0645
     67 H         -1.718458   3.678526   -0.787568 H        1 UNL1     0.0362
     68 H         -2.494848   2.584499   0.949182 H        1 UNL1     0.0741
     69 H         -1.254985   0.577996   2.158757 H        1 UNL1     0.0359
     70 H         0.828487   0.727067   2.956525 H        1 UNL1     0.0600
     71 H         1.740123   -0.445929   1.37611 H        1 UNL1     0.0348
     72 H         3.354245   1.377808   1.401442 H        1 UNL1     0.0602
     73 H         0.942541   5.378506   -0.471908 H        1 UNL1     0.0628
     74 H         1.617463   5.413413   2.52874 H        1 UNL1     0.1022
     75 H         11.131521   1.885471   -3.069361 H        1 UNL1     0.0279
     76 H         11.052372   3.064832   -4.316815 H        1 UNL1     0.0279
     77 H         12.128242   3.267492   -2.875729 H        1 UNL1     0.0279
     78 H         9.376793   4.475704   -4.747383 H        1 UNL1     0.1553
     79 H         8.04232   3.047061   -4.424294 H        1 UNL1     0.1484
     80 H         4.283374   2.556298   -4.686918 H        1 UNL1     0.0317
     81 H         5.080033   4.056115   -5.140578 H        1 UNL1     0.0317
     82 H         6.991898   2.797809   -6.167778 H        1 UNL1     0.0428
     83 H         5.445359   2.362219   -6.86073 H        1 UNL1     0.0428
     84 H         7.044349   -0.2973   -3.949832 H        1 UNL1     0.0428
     85 H         8.010554   1.081123   -4.34419 H        1 UNL1     0.0428
     86 H         6.648175   1.214584   -2.258294 H        1 UNL1     0.0317
     87 H         5.173932   1.024482   -3.090653 H        1 UNL1     0.0317
     88 H         7.539026   0.583765   -7.129559 H        1 UNL1     0.0429
     89 H         7.100167   -0.882861   -6.250556 H        1 UNL1     0.0429
     90 H         4.614165   -0.011776   -7.1471 H        1 UNL1     0.0308
     91 H         6.642715   0.757653   -9.326209 H        1 UNL1     0.0233
     92 H         4.87608   0.660456   -9.538453 H        1 UNL1     0.0233
     93 H         5.573281   1.879559   -8.493322 H        1 UNL1     0.0233
     94 H         4.922987   -1.710359   -8.98422 H        1 UNL1     0.0233
     95 H         6.60183   -1.87143   -8.445823 H        1 UNL1     0.0233
     96 H         5.270822   -2.280069   -7.338834 H        1 UNL1     0.0233
     97 H         4.4639   10.389993   -0.046071 H        1 UNL1     0.0280
     98 H         6.096588   10.958083   -0.266958 H        1 UNL1     0.0280
     99 H         4.957392   10.974453   -1.645977 H        1 UNL1     0.0280
     100 H         7.112527   10.481985   -2.879805 H        1 UNL1     0.2922
     101 H         4.638864   0.768508   2.588316 H        1 UNL1     0.0236
     102 H         5.986418   1.9679   2.696105 H        1 UNL1     0.0236
     103 H         6.262367   0.345399   2.142173 H        1 UNL1     0.0236
     104 H         4.266081   -0.67616   1.430024 H        1 UNL1     0.2098
     105 H         0.779712   1.25017   -0.916467 H        1 UNL1     0.0234
     106 H         1.312384   -0.45429   -0.963105 H        1 UNL1     0.0234
     107 H         0.0   -0.0   0.0 H        1 UNL1     0.0234
     108 H         1.236378   3.241077   1.761545 H        1 UNL1     0.2098
     109 H         1.200978   3.005076   -0.840957 H        1 UNL1     0.0234
     110 H         -0.040271   2.318751   -1.936887 H        1 UNL1     0.0234
     111 H         0.264479   4.020396   -1.917549 H        1 UNL1     0.0234
     112 H         -3.659811   -1.406542   1.339052 H        1 UNL1     0.0342
     113 H         -3.263804   0.215617   2.009884 H        1 UNL1     0.0342
     114 H         -4.432079   0.053382   0.695813 H        1 UNL1     0.0342
     115 H         -2.702461   2.044584   3.211976 H        1 UNL1     0.0234
     116 H         -1.219401   2.016121   4.171407 H        1 UNL1     0.0234
     117 H         -1.6541   3.381075   3.121842 H        1 UNL1     0.0234
     118 H         1.203632   7.643073   -0.810944 H        1 UNL1     0.0309
     119 H         2.519193   7.692501   -2.025406 H        1 UNL1     0.0309
     120 H         1.701048   6.20067   -1.616463 H        1 UNL1     0.0309
     121 H         -0.252612   6.324909   2.738166 H        1 UNL1     0.0524
     122 H         -1.98509   6.11838   2.450554 H        1 UNL1     0.0524
     123 H         -1.241937   5.404823   3.90393 H        1 UNL1     0.0524
@<TRIPOS>BOND
     1     1     2    1
     2     1    42    1
     3     2     3    2
     4     3     4    1
     5     4     5    2
     6     5     7    1
     7     6    75    1
     8     6    76    1
     9     6    77    1
    10     7     9   am
    11     9    10    1
    12    10    11    2
    13    10    43    1
    14    11    14    1
    15    11    15    1
    16    12    13   ar
    17    12    27   ar
    18    12    43    1
    19    13    14    1
    20    13    30   ar
    21    14    17    2
    22    15    16    1
    23    16    17    1
    24    16    18    1
    25    16    22    1
    26    18    19    1
    27    19    20    1
    28    20    21    1
    29    21    22    1
    30    23    24    1
    31    23    88    1
    32    23    89    1
    33    24    25    1
    34    24    26    1
    35    24    90    1
    36    25    91    1
    37    25    92    1
    38    25    93    1
    39    26    94    1
    40    26    95    1
    41    26    96    1
    42    27    28   ar
    43    28    29   ar
    44    29    30   ar
    45    29    31    1
    46    30    33    1
    47    31    32    1
    48    32    33    1
    49    32    35    1
    50    34    97    1
    51    34    98    1
    52    34    99    1
    53    35    61    1
    54    36    37    1
    55    36    60    1
    56    37    38    1
    57    38    39    1
    58    39    40    1
    59    40    41    1
    60    41    42    1
    61    45   100    1
    62    47   101    1
    63    47   102    1
    64    47   103    1
    65    48   104    1
    66    49   105    1
    67    49   106    1
    68    49   107    1
    69    50   108    1
    70    51    59    1
    71    52   109    1
    72    52   110    1
    73    52   111    1
    74    53    54    1
    75    54    55    2
    76    54    56    1
    77    56   112    1
    78    56   113    1
    79    56   114    1
    80    57   115    1
    81    57   116    1
    82    57   117    1
    83    58   118    1
    84    58   119    1
    85    58   120    1
    86    59   121    1
    87    59   122    1
    88    59   123    1
    89    60    61    2
    90     1    47    1
    91     1    62    1
    92     2    63    1
    93     3    64    1
    94     4    65    1
    95     5     6    1
    96     7     8    2
    97     9    78    1
    98    15    79    1
    99    18    80    1
   100    18    81    1
   101    19    82    1
   102    19    83    1
   103    20    23    1
   104    21    84    1
   105    21    85    1
   106    22    86    1
   107    22    87    1
   108    27    45    1
   109    28    34    1
   110    32    58    1
   111    33    46    2
   112    36    51    1
   113    36    66    1
   114    37    52    1
   115    37    67    1
   116    38    53    1
   117    38    68    1
   118    42    48    1
   119    42    72    1
   120    43    44    2
   121    60    73    1
   122    61    74    1
   123    39    69    1
   124    39    57    1
   125    40    70    1
   126    40    50    1
   127    41    71    1
   128    41    49    1
