@<TRIPOS>MOLECULE
*****
 123 128 0 0 0
SMALL
GASTEIGER

@<TRIPOS>ATOM
     1 C         5.168306   1.742997   0.500005 C.3        1 UNL1     0.0009
     2 C         6.607209   2.547776   -0.347891 C.2        1 UNL1     -0.0787
     3 C         7.890068   2.448386   -1.011547 C.2        1 UNL1     -0.0649
     4 C         8.770021   3.68274   -1.765477 C.2        1 UNL1     -0.0542
     5 C         9.791877   3.974501   -2.702368 C.2        1 UNL1     0.0115
     6 C         10.920837   3.348048   -3.566271 C.3        1 UNL1     -0.0348
     7 C         9.889736   5.457768   -3.308446 C.2        1 UNL1     0.2441
     8 O         10.713851   6.278495   -2.929281 O.2        1 UNL1     -0.2702
     9 N         9.141636   5.665722   -4.480306 N.am        1 UNL1     -0.2772
     10 C         7.858812   6.053671   -4.16857 C.2        1 UNL1     0.1049
     11 C         7.011549   5.08308   -3.878191 C.2        1 UNL1     0.0801
     12 C         6.559784   7.661408   -2.759655 C.ar        1 UNL1     0.0753
     13 C         5.798833   6.534197   -2.313609 C.ar        1 UNL1     0.0305
     14 C         5.915467   5.228493   -2.959042 C.2        1 UNL1     0.0924
     15 N         7.133055   3.754005   -4.037323 N.pl3        1 UNL1     -0.3170
     16 C         5.862067   3.156091   -3.725325 C.3        1 UNL1     0.1275
     17 N         5.225059   4.111805   -2.746267 N.2        1 UNL1     -0.2557
     18 C         5.01134   3.216271   -4.990372 C.3        1 UNL1     0.0016
     19 C         5.767351   2.531602   -6.117876 C.3        1 UNL1     0.0026
     20 N         6.03544   1.153153   -5.731829 N.3        1 UNL1     -0.3018
     21 C         6.796611   0.991746   -4.49129 C.3        1 UNL1     0.0026
     22 C         6.016755   1.682868   -3.371438 C.3        1 UNL1     0.0016
     23 C         6.480907   0.333356   -6.840944 C.3        1 UNL1     0.0012
     24 C         5.325687   0.081614   -7.822702 C.3        1 UNL1     -0.0339
     25 C         5.344691   1.089389   -8.983773 C.3        1 UNL1     -0.0615
     26 C         5.372034   -1.350944   -8.325106 C.3        1 UNL1     -0.0615
     27 C         6.355555   8.929216   -2.220144 C.ar        1 UNL1     0.1347
     28 C         5.395214   9.199583   -1.261657 C.ar        1 UNL1     0.0342
     29 C         4.691731   8.065776   -0.802572 C.ar        1 UNL1     0.1435
     30 C         4.910672   6.783614   -1.307887 C.ar        1 UNL1     0.0774
     31 O         3.649471   8.180267   0.049245 O.3        1 UNL1     -0.4436
     32 C         2.926752   6.948219   -0.09431 C.3        1 UNL1     0.3143
     33 C         3.939886   5.954161   -0.624989 C.2        1 UNL1     0.2504
     34 C         4.949071   10.56607   -0.821464 C.3        1 UNL1     -0.0327
     35 O         2.563526   6.51166   1.221264 O.2        1 UNL1     -0.4528
     36 C         -0.680866   4.582897   0.818924 C.3        1 UNL1     0.0854
     37 C         -0.986018   3.322785   -0.079143 C.3        1 UNL1     0.0236
     38 C         -1.589154   2.062226   0.707598 C.3        1 UNL1     0.1131
     39 C         -0.866057   1.530316   2.010085 C.3        1 UNL1     0.0200
     40 C         0.794915   1.383046   2.053921 C.3        1 UNL1     0.0661
     41 C         1.755383   0.613426   0.886531 C.3        1 UNL1     0.0091
     42 C         3.464256   0.974315   0.325358 C.3        1 UNL1     0.0661
     43 C         7.511426   7.452917   -3.879104 C.2        1 UNL1     0.2131
     44 O         7.913401   8.350703   -4.596831 O.2        1 UNL1     -0.2851
     45 O         7.169633   9.963561   -2.677138 O.3        1 UNL1     -0.5056
     46 O         3.954419   4.750588   -0.494393 O.2        1 UNL1     -0.2836
     47 C         5.561894   1.312867   1.938774 C.3        1 UNL1     -0.0566
     48 O         3.911227   -0.437268   0.40763 O.3        1 UNL1     -0.3909
     49 C         0.922964   0.381908   -0.354828 C.3        1 UNL1     -0.0577
     50 O         1.395737   2.600221   2.447903 O.3        1 UNL1     -0.3910
     51 O         -0.807403   4.393118   2.210112 O.3        1 UNL1     -0.3753
     52 C         0.060134   3.161426   -1.230002 C.3        1 UNL1     -0.0564
     53 O         -2.191375   1.024017   -0.193389 O.3        1 UNL1     -0.4608
     54 C         -2.41558   -0.285799   0.141343 C.2        1 UNL1     0.3042
     55 O         -1.843715   -1.279304   -0.305598 O.2        1 UNL1     -0.2512
     56 C         -3.446885   -0.463021   1.219173 C.3        1 UNL1     0.0332
     57 C         -1.588431   2.199847   3.270275 C.3        1 UNL1     -0.0567
     58 C         1.853566   7.194602   -1.180172 C.3        1 UNL1     0.0210
     59 C         -1.159201   5.564289   2.945273 C.3        1 UNL1     0.0372
     60 C         0.649152   5.210641   0.590561 C.2        1 UNL1     -0.0208
     61 C         1.561131   5.644785   1.461513 C.2        1 UNL1     0.0882
     62 H         4.693265   2.727649   0.586666 H        1 UNL1     0.0365
     63 H         6.341884   3.601834   -0.242843 H        1 UNL1     0.0576
     64 H         8.347077   1.481098   -1.232014 H        1 UNL1     0.0615
     65 H         8.283329   4.598584   -1.419295 H        1 UNL1     0.0622
     66 H         -1.42424   5.330247   0.507622 H        1 UNL1     0.0645
     67 H         -1.850257   3.633147   -0.691781 H        1 UNL1     0.0362
     68 H         -2.536337   2.500027   1.057878 H        1 UNL1     0.0741
     69 H         -1.198943   0.519531   2.204787 H        1 UNL1     0.0359
     70 H         0.904584   0.722458   2.935202 H        1 UNL1     0.0600
     71 H         1.797218   -0.407852   1.313377 H        1 UNL1     0.0348
     72 H         3.357301   1.462472   1.304939 H        1 UNL1     0.0602
     73 H         0.768923   5.407934   -0.445768 H        1 UNL1     0.0628
     74 H         1.541642   5.433969   2.531286 H        1 UNL1     0.1022
     75 H         10.963925   2.2427   -3.41336 H        1 UNL1     0.0279
     76 H         10.809029   3.431127   -4.645005 H        1 UNL1     0.0279
     77 H         11.9257   3.651657   -3.237983 H        1 UNL1     0.0279
     78 H         9.079578   4.795921   -5.005351 H        1 UNL1     0.1553
     79 H         7.798874   3.325421   -4.65371 H        1 UNL1     0.1484
     80 H         4.049238   2.726304   -4.797864 H        1 UNL1     0.0317
     81 H         4.786245   4.253301   -5.261574 H        1 UNL1     0.0317
     82 H         6.698963   3.061977   -6.364279 H        1 UNL1     0.0428
     83 H         5.143693   2.587535   -7.010609 H        1 UNL1     0.0428
     84 H         6.915351   -0.051379   -4.182093 H        1 UNL1     0.0428
     85 H         7.827251   1.358725   -4.593392 H        1 UNL1     0.0428
     86 H         6.531455   1.431827   -2.462565 H        1 UNL1     0.0317
     87 H         5.036615   1.20623   -3.248001 H        1 UNL1     0.0317
     88 H         7.276194   0.875781   -7.368758 H        1 UNL1     0.0429
     89 H         6.914785   -0.611573   -6.489329 H        1 UNL1     0.0429
     90 H         4.372885   0.1813   -7.289369 H        1 UNL1     0.0308
     91 H         6.292623   1.050436   -9.52876 H        1 UNL1     0.0233
     92 H         4.523724   0.894621   -9.677812 H        1 UNL1     0.0233
     93 H         5.216849   2.123439   -8.641381 H        1 UNL1     0.0233
     94 H         4.675493   -1.480968   -9.160427 H        1 UNL1     0.0233
     95 H         6.377263   -1.588593   -8.684271 H        1 UNL1     0.0233
     96 H         5.102245   -2.059226   -7.536741 H        1 UNL1     0.0233
     97 H         4.154491   10.517001   -0.082908 H        1 UNL1     0.0280
     98 H         5.761658   11.135198   -0.351301 H        1 UNL1     0.0280
     99 H         4.577379   11.131124   -1.691897 H        1 UNL1     0.0280
     100 H         6.703895   10.714312   -3.001304 H        1 UNL1     0.2922
     101 H         4.698222   0.878622   2.441923 H        1 UNL1     0.0236
     102 H         6.011186   2.118071   2.519091 H        1 UNL1     0.0236
     103 H         6.318453   0.510489   1.938777 H        1 UNL1     0.0236
     104 H         4.329224   -0.563824   1.281834 H        1 UNL1     0.2098
     105 H         0.712488   1.280991   -0.928553 H        1 UNL1     0.0234
     106 H         1.292382   -0.406652   -1.010291 H        1 UNL1     0.0234
     107 H         0.0   -0.0   0.0 H        1 UNL1     0.0234
     108 H         1.19659   3.259517   1.755489 H        1 UNL1     0.2098
     109 H         1.083465   3.040641   -0.848012 H        1 UNL1     0.0234
     110 H         -0.175364   2.338523   -1.913461 H        1 UNL1     0.0234
     111 H         0.087695   4.046872   -1.87898 H        1 UNL1     0.0234
     112 H         -3.574826   -1.526969   1.440512 H        1 UNL1     0.0342
     113 H         -3.198248   0.096281   2.119842 H        1 UNL1     0.0342
     114 H         -4.405438   -0.0796   0.843233 H        1 UNL1     0.0342
     115 H         -2.652952   1.932514   3.320438 H        1 UNL1     0.0234
     116 H         -1.138701   1.938693   4.23027 H        1 UNL1     0.0234
     117 H         -1.647663   3.300213   3.21004 H        1 UNL1     0.0234
     118 H         0.952334   7.682378   -0.769243 H        1 UNL1     0.0309
     119 H         2.224903   7.782329   -2.025683 H        1 UNL1     0.0309
     120 H         1.464715   6.263108   -1.605873 H        1 UNL1     0.0309
     121 H         -0.35977   6.291984   2.808431 H        1 UNL1     0.0524
     122 H         -2.092448   6.023567   2.579005 H        1 UNL1     0.0524
     123 H         -1.273223   5.326442   3.999086 H        1 UNL1     0.0524
@<TRIPOS>BOND
     1     1     2    1
     2     1    42    1
     3     2     3    2
     4     3     4    1
     5     4     5    2
     6     5     7    1
     7     6    75    1
     8     6    76    1
     9     6    77    1
    10     7     9   am
    11     9    10    1
    12    10    11    2
    13    10    43    1
    14    11    14    1
    15    11    15    1
    16    12    13   ar
    17    12    27   ar
    18    12    43    1
    19    13    14    1
    20    13    30   ar
    21    14    17    2
    22    15    16    1
    23    16    17    1
    24    16    18    1
    25    16    22    1
    26    18    19    1
    27    19    20    1
    28    20    21    1
    29    21    22    1
    30    23    24    1
    31    23    88    1
    32    23    89    1
    33    24    25    1
    34    24    26    1
    35    24    90    1
    36    25    91    1
    37    25    92    1
    38    25    93    1
    39    26    94    1
    40    26    95    1
    41    26    96    1
    42    27    28   ar
    43    28    29   ar
    44    29    30   ar
    45    29    31    1
    46    30    33    1
    47    31    32    1
    48    32    33    1
    49    32    35    1
    50    34    97    1
    51    34    98    1
    52    34    99    1
    53    35    61    1
    54    36    37    1
    55    36    60    1
    56    37    38    1
    57    38    39    1
    58    39    40    1
    59    40    41    1
    60    41    42    1
    61    45   100    1
    62    47   101    1
    63    47   102    1
    64    47   103    1
    65    48   104    1
    66    49   105    1
    67    49   106    1
    68    49   107    1
    69    50   108    1
    70    51    59    1
    71    52   109    1
    72    52   110    1
    73    52   111    1
    74    53    54    1
    75    54    55    2
    76    54    56    1
    77    56   112    1
    78    56   113    1
    79    56   114    1
    80    57   115    1
    81    57   116    1
    82    57   117    1
    83    58   118    1
    84    58   119    1
    85    58   120    1
    86    59   121    1
    87    59   122    1
    88    59   123    1
    89    60    61    2
    90     1    47    1
    91     1    62    1
    92     2    63    1
    93     3    64    1
    94     4    65    1
    95     5     6    1
    96     7     8    2
    97     9    78    1
    98    15    79    1
    99    18    80    1
   100    18    81    1
   101    19    82    1
   102    19    83    1
   103    20    23    1
   104    21    84    1
   105    21    85    1
   106    22    86    1
   107    22    87    1
   108    27    45    1
   109    28    34    1
   110    32    58    1
   111    33    46    2
   112    36    51    1
   113    36    66    1
   114    37    52    1
   115    37    67    1
   116    38    53    1
   117    38    68    1
   118    42    48    1
   119    42    72    1
   120    43    44    2
   121    60    73    1
   122    61    74    1
   123    39    69    1
   124    39    57    1
   125    40    70    1
   126    40    50    1
   127    41    71    1
   128    41    49    1
