@<TRIPOS>MOLECULE
*****
 123 128 0 0 0
SMALL
GASTEIGER

@<TRIPOS>ATOM
     1 C         4.328726   2.097905   -1.174302 C.3        1 UNL1     0.0009
     2 C         4.878189   3.416413   -2.356109 C.2        1 UNL1     -0.0787
     3 C         5.639878   3.823669   -3.518012 C.2        1 UNL1     -0.0649
     4 C         5.654584   5.338457   -4.274027 C.2        1 UNL1     -0.0542
     5 C         5.95814   6.036962   -5.468607 C.2        1 UNL1     0.0115
     6 C         6.640615   5.911955   -6.858544 C.3        1 UNL1     -0.0348
     7 C         5.330294   7.496811   -5.695851 C.2        1 UNL1     0.2441
     8 O         5.969498   8.527925   -5.538536 O.2        1 UNL1     -0.2702
     9 N         4.079707   7.506694   -6.33779 N.am        1 UNL1     -0.2772
     10 C         3.065366   7.392848   -5.415037 C.2        1 UNL1     0.1049
     11 C         2.777092   6.1676   -5.015177 C.2        1 UNL1     0.0801
     12 C         2.237674   8.33529   -3.250768 C.ar        1 UNL1     0.0753
     13 C         2.140507   6.983793   -2.789659 C.ar        1 UNL1     0.0305
     14 C         2.282281   5.851782   -3.702623 C.2        1 UNL1     0.0924
     15 N         3.167962   4.981988   -5.513245 N.pl3        1 UNL1     -0.3170
     16 C         2.436921   3.952818   -4.822853 C.3        1 UNL1     0.1275
     17 N         2.126021   4.551158   -3.472648 N.2        1 UNL1     -0.2557
     18 C         1.096816   3.794965   -5.534824 C.3        1 UNL1     0.0016
     19 C         1.358025   3.501792   -7.003636 C.3        1 UNL1     0.0026
     20 N         2.151151   2.28444   -7.103801 N.3        1 UNL1     -0.3018
     21 C         3.433323   2.317863   -6.397199 C.3        1 UNL1     0.0026
     22 C         3.146872   2.60914   -4.92309 C.3        1 UNL1     0.0016
     23 C         2.202324   1.754019   -8.451643 C.3        1 UNL1     0.0012
     24 C         2.024288   0.227637   -8.436904 C.3        1 UNL1     -0.0339
     25 C         1.813519   -0.300185   -7.008255 C.3        1 UNL1     -0.0615
     26 C         0.882231   -0.172352   -9.354779 C.3        1 UNL1     -0.0615
     27 C         1.982082   9.408246   -2.400146 C.ar        1 UNL1     0.1347
     28 C         1.58405   9.254317   -1.084119 C.ar        1 UNL1     0.0342
     29 C         1.542581   7.916116   -0.638404 C.ar        1 UNL1     0.1435
     30 C         1.831085   6.832623   -1.469084 C.ar        1 UNL1     0.0774
     31 O         1.067771   7.595155   0.58493 O.3        1 UNL1     -0.4436
     32 C         0.741988   6.200065   0.492941 C.3        1 UNL1     0.3143
     33 C         1.59421   5.668217   -0.641548 C.2        1 UNL1     0.2504
     34 C         1.052528   10.340506   -0.190935 C.3        1 UNL1     -0.0327
     35 O         1.208449   5.57359   1.694272 O.2        1 UNL1     -0.4528
     36 C         -1.134166   2.653726   2.322471 C.3        1 UNL1     0.0854
     37 C         -1.477406   1.432323   1.385517 C.3        1 UNL1     0.0236
     38 C         -1.240077   -0.011161   2.042611 C.3        1 UNL1     0.1131
     39 C         0.143783   -0.341051   2.734258 C.3        1 UNL1     0.0200
     40 C         1.578206   0.106642   2.010077 C.3        1 UNL1     0.0661
     41 C         2.0123   -0.190626   0.397376 C.3        1 UNL1     0.0091
     42 C         3.048545   0.789689   -0.756133 C.3        1 UNL1     0.0661
     43 C         2.53239   8.554947   -4.688528 C.2        1 UNL1     0.2131
     44 O         2.26335   9.5841   -5.281148 O.2        1 UNL1     -0.2851
     45 O         2.143518   10.692694   -2.91548 O.3        1 UNL1     -0.5056
     46 O         2.004055   4.541809   -0.812094 O.2        1 UNL1     -0.2836
     47 C         5.479027   1.736885   -0.196318 C.3        1 UNL1     -0.0566
     48 O         3.849589   -0.374289   -1.206247 O.3        1 UNL1     -0.3909
     49 C         0.779833   -0.615691   -0.36933 C.3        1 UNL1     -0.0577
     50 O         1.930283   1.427436   2.369616 O.3        1 UNL1     -0.3910
     51 O         -0.503521   2.336005   3.542624 O.3        1 UNL1     -0.3753
     52 C         -1.133099   1.731565   -0.110095 C.3        1 UNL1     -0.0564
     53 O         -1.891685   -1.130577   1.284561 O.3        1 UNL1     -0.4608
     54 C         -1.587661   -2.460604   1.413121 C.2        1 UNL1     0.3042
     55 O         -0.554905   -2.949999   1.868912 O.2        1 UNL1     -0.2512
     56 C         -2.69928   -3.375751   0.984725 C.3        1 UNL1     0.0332
     57 C         -0.020344   -0.059235   4.300086 C.3        1 UNL1     -0.0567
     58 C         -0.745608   6.124764   0.077109 C.3        1 UNL1     0.0210
     59 C         -0.683361   3.299957   4.579118 C.3        1 UNL1     0.0372
     60 C         -0.321601   3.725851   1.685725 C.2        1 UNL1     -0.0208
     61 C         0.738669   4.393609   2.142532 C.2        1 UNL1     0.0882
     62 H         3.705771   2.842107   -0.663614 H        1 UNL1     0.0365
     63 H         4.418247   4.298331   -1.905394 H        1 UNL1     0.0576
     64 H         6.177475   3.098503   -4.133018 H        1 UNL1     0.0615
     65 H         5.16841   5.996465   -3.54867 H        1 UNL1     0.0622
     66 H         -2.108225   3.109035   2.550393 H        1 UNL1     0.0645
     67 H         -2.577967   1.458045   1.303886 H        1 UNL1     0.0362
     68 H         -1.972069   0.037665   2.863176 H        1 UNL1     0.0741
     69 H         0.244625   -1.415073   2.816199 H        1 UNL1     0.0359
     70 H         2.284364   -0.531408   2.575138 H        1 UNL1     0.0600
     71 H         2.539492   -1.15777   0.514242 H        1 UNL1     0.0348
     72 H         3.305422   1.139578   0.254267 H        1 UNL1     0.0602
     73 H         -0.785818   4.023718   0.778517 H        1 UNL1     0.0628
     74 H         1.305883   4.116328   3.0317 H        1 UNL1     0.1022
     75 H         7.410494   5.103152   -6.845927 H        1 UNL1     0.0279
     76 H         6.002199   5.614771   -7.687504 H        1 UNL1     0.0279
     77 H         7.252623   6.78988   -7.112304 H        1 UNL1     0.0279
     78 H         4.012053   6.709676   -6.967283 H        1 UNL1     0.1553
     79 H         3.534415   4.860488   -6.439465 H        1 UNL1     0.1484
     80 H         0.532377   2.984076   -5.058764 H        1 UNL1     0.0317
     81 H         0.490232   4.701186   -5.432504 H        1 UNL1     0.0317
     82 H         1.859631   4.34329   -7.503822 H        1 UNL1     0.0428
     83 H         0.389338   3.394703   -7.492744 H        1 UNL1     0.0428
     84 H         3.972381   1.365682   -6.421288 H        1 UNL1     0.0428
     85 H         4.132841   3.032077   -6.853148 H        1 UNL1     0.0428
     86 H         4.087578   2.494566   -4.417192 H        1 UNL1     0.0317
     87 H         2.529948   1.809057   -4.496045 H        1 UNL1     0.0317
     88 H         1.376911   2.196638   -9.024423 H        1 UNL1     0.0429
     89 H         3.133877   2.039166   -8.957284 H        1 UNL1     0.0429
     90 H         2.922589   -0.242804   -8.853982 H        1 UNL1     0.0308
     91 H         2.595614   -1.012082   -6.72784 H        1 UNL1     0.0233
     92 H         1.803456   0.522908   -6.289905 H        1 UNL1     0.0233
     93 H         0.854379   -0.819207   -6.892054 H        1 UNL1     0.0233
     94 H         0.559516   -1.195227   -9.132478 H        1 UNL1     0.0233
     95 H         0.027645   0.492073   -9.199265 H        1 UNL1     0.0233
     96 H         1.179744   -0.124631   -10.406053 H        1 UNL1     0.0233
     97 H         0.055248   10.115421   0.175125 H        1 UNL1     0.0280
     98 H         1.675136   10.483796   0.70186 H        1 UNL1     0.0280
     99 H         1.009458   11.289713   -0.749725 H        1 UNL1     0.0280
     100 H         2.967844   10.841759   -3.344303 H        1 UNL1     0.2922
     101 H         5.903701   2.648186   0.224202 H        1 UNL1     0.0236
     102 H         6.240396   1.100628   -0.646293 H        1 UNL1     0.0236
     103 H         5.117342   1.168012   0.676472 H        1 UNL1     0.0236
     104 H         4.455685   -0.614462   -0.478281 H        1 UNL1     0.2098
     105 H         0.84421   -0.462513   -1.443669 H        1 UNL1     0.0234
     106 H         0.43426   -1.626241   -0.151858 H        1 UNL1     0.0234
     107 H         -0.0   0.0   0.0 H        1 UNL1     0.0234
     108 H         1.746408   1.527214   3.323557 H        1 UNL1     0.2098
     109 H         -1.096102   0.81768   -0.719322 H        1 UNL1     0.0234
     110 H         -1.815188   2.452988   -0.572747 H        1 UNL1     0.0234
     111 H         -0.143811   2.197189   -0.212319 H        1 UNL1     0.0234
     112 H         -3.498382   -3.36589   1.732177 H        1 UNL1     0.0342
     113 H         -3.083555   -3.119597   -0.00146 H        1 UNL1     0.0342
     114 H         -2.300641   -4.398202   0.931376 H        1 UNL1     0.0342
     115 H         0.951902   0.061452   4.79744 H        1 UNL1     0.0234
     116 H         -0.619563   0.823524   4.531868 H        1 UNL1     0.0234
     117 H         -0.441097   -0.912796   4.858961 H        1 UNL1     0.0234
     118 H         -1.385899   5.748281   0.89399 H        1 UNL1     0.0309
     119 H         -1.141867   7.081951   -0.276409 H        1 UNL1     0.0309
     120 H         -0.920127   5.406971   -0.731856 H        1 UNL1     0.0309
     121 H         -1.506502   3.95059   4.285053 H        1 UNL1     0.0524
     122 H         -0.955607   2.834259   5.54091 H        1 UNL1     0.0524
     123 H         0.224426   3.881337   4.713328 H        1 UNL1     0.0524
@<TRIPOS>BOND
     1     1     2    1
     2     1    42    1
     3     2     3    2
     4     3     4    1
     5     4     5    2
     6     5     7    1
     7     6    75    1
     8     6    76    1
     9     6    77    1
    10     7     9   am
    11     9    10    1
    12    10    11    2
    13    10    43    1
    14    11    14    1
    15    11    15    1
    16    12    13   ar
    17    12    27   ar
    18    12    43    1
    19    13    14    1
    20    13    30   ar
    21    14    17    2
    22    15    16    1
    23    16    17    1
    24    16    18    1
    25    16    22    1
    26    18    19    1
    27    19    20    1
    28    20    21    1
    29    21    22    1
    30    23    24    1
    31    23    88    1
    32    23    89    1
    33    24    25    1
    34    24    26    1
    35    24    90    1
    36    25    91    1
    37    25    92    1
    38    25    93    1
    39    26    94    1
    40    26    95    1
    41    26    96    1
    42    27    28   ar
    43    28    29   ar
    44    29    30   ar
    45    29    31    1
    46    30    33    1
    47    31    32    1
    48    32    33    1
    49    32    35    1
    50    34    97    1
    51    34    98    1
    52    34    99    1
    53    35    61    1
    54    36    37    1
    55    36    60    1
    56    37    38    1
    57    38    39    1
    58    39    40    1
    59    40    41    1
    60    41    42    1
    61    45   100    1
    62    47   101    1
    63    47   102    1
    64    47   103    1
    65    48   104    1
    66    49   105    1
    67    49   106    1
    68    49   107    1
    69    50   108    1
    70    51    59    1
    71    52   109    1
    72    52   110    1
    73    52   111    1
    74    53    54    1
    75    54    55    2
    76    54    56    1
    77    56   112    1
    78    56   113    1
    79    56   114    1
    80    57   115    1
    81    57   116    1
    82    57   117    1
    83    58   118    1
    84    58   119    1
    85    58   120    1
    86    59   121    1
    87    59   122    1
    88    59   123    1
    89    60    61    2
    90     1    47    1
    91     1    62    1
    92     2    63    1
    93     3    64    1
    94     4    65    1
    95     5     6    1
    96     7     8    2
    97     9    78    1
    98    15    79    1
    99    18    80    1
   100    18    81    1
   101    19    82    1
   102    19    83    1
   103    20    23    1
   104    21    84    1
   105    21    85    1
   106    22    86    1
   107    22    87    1
   108    27    45    1
   109    28    34    1
   110    32    58    1
   111    33    46    2
   112    36    51    1
   113    36    66    1
   114    37    52    1
   115    37    67    1
   116    38    53    1
   117    38    68    1
   118    42    48    1
   119    42    72    1
   120    43    44    2
   121    60    73    1
   122    61    74    1
   123    39    69    1
   124    39    57    1
   125    40    70    1
   126    40    50    1
   127    41    71    1
   128    41    49    1
