@<TRIPOS>MOLECULE
*****
 123 128 0 0 0
SMALL
GASTEIGER

@<TRIPOS>ATOM
     1 C         0.623349   -4.074096   -3.556189 C.3        1 UNL1     0.0009
     2 C         0.803075   -4.487579   -5.354457 C.2        1 UNL1     -0.0787
     3 C         0.258338   -5.039981   -6.576816 C.2        1 UNL1     -0.0649
     4 C         0.949307   -5.028535   -8.122387 C.2        1 UNL1     -0.0542
     5 C         0.691801   -5.149778   -9.510216 C.2        1 UNL1     0.0115
     6 C         -0.386391   -5.53827   -10.558976 C.3        1 UNL1     -0.0348
     7 C         1.785018   -4.607942   -10.553421 C.2        1 UNL1     0.2441
     8 O         2.553629   -5.345436   -11.154974 O.2        1 UNL1     -0.2702
     9 N         1.627281   -3.261601   -10.925761 N.am        1 UNL1     -0.2772
     10 C         2.295777   -2.439196   -10.048216 C.2        1 UNL1     0.1049
     11 C         1.657337   -2.137238   -8.932224 C.2        1 UNL1     0.0801
     12 C         4.503833   -2.12353   -8.915883 C.ar        1 UNL1     0.0753
     13 C         3.771286   -2.010262   -7.691484 C.ar        1 UNL1     0.0305
     14 C         2.315772   -1.88223   -7.679702 C.2        1 UNL1     0.0924
     15 N         0.370641   -2.328807   -8.594228 N.pl3        1 UNL1     -0.3170
     16 C         0.142967   -1.665686   -7.337769 C.3        1 UNL1     0.1275
     17 N         1.490589   -1.670499   -6.658345 N.2        1 UNL1     -0.2557
     18 C         -0.169863   -0.204919   -7.647606 C.3        1 UNL1     0.0016
     19 C         -1.347811   -0.152832   -8.607458 C.3        1 UNL1     0.0026
     20 N         -2.487643   -0.812223   -7.985354 N.3        1 UNL1     -0.3018
     21 C         -2.262711   -2.205405   -7.594436 C.3        1 UNL1     0.0026
     22 C         -1.078299   -2.233684   -6.626829 C.3        1 UNL1     0.0016
     23 C         -3.733963   -0.559287   -8.680591 C.3        1 UNL1     0.0012
     24 C         -3.498089   0.353597   -9.894165 C.3        1 UNL1     -0.0339
     25 C         -2.990858   -0.443403   -11.107246 C.3        1 UNL1     -0.0615
     26 C         -4.766065   1.122998   -10.221333 C.3        1 UNL1     -0.0615
     27 C         5.896675   -2.123504   -8.926266 C.ar        1 UNL1     0.1347
     28 C         6.663362   -1.97668   -7.784038 C.ar        1 UNL1     0.0342
     29 C         5.921245   -1.915957   -6.585398 C.ar        1 UNL1     0.1435
     30 C         4.526564   -1.951187   -6.556328 C.ar        1 UNL1     0.0774
     31 O         6.517062   -1.662834   -5.399676 O.3        1 UNL1     -0.4436
     32 C         5.452328   -1.215523   -4.546959 C.3        1 UNL1     0.3143
     33 C         4.188854   -1.787081   -5.157833 C.2        1 UNL1     0.2504
     34 C         8.143404   -1.716116   -7.743034 C.3        1 UNL1     -0.0327
     35 O         5.627284   -1.854293   -3.276284 O.2        1 UNL1     -0.4528
     36 C         4.210693   0.547126   -0.700523 C.3        1 UNL1     0.0854
     37 C         2.761306   1.161191   -0.601912 C.3        1 UNL1     0.0236
     38 C         2.017521   0.916757   0.797652 C.3        1 UNL1     0.1131
     39 C         1.936357   -0.544078   1.399019 C.3        1 UNL1     0.0200
     40 C         1.568457   -1.842241   0.418274 C.3        1 UNL1     0.0661
     41 C         0.266831   -1.931046   -0.665928 C.3        1 UNL1     0.0091
     42 C         0.11541   -2.799123   -2.274939 C.3        1 UNL1     0.0661
     43 C         3.731463   -2.150997   -10.18275 C.2        1 UNL1     0.2131
     44 O         4.203631   -1.855081   -11.265445 O.2        1 UNL1     -0.2851
     45 O         6.532626   -2.283795   -10.155621 O.3        1 UNL1     -0.5056
     46 O         3.145873   -2.065286   -4.60952 O.2        1 UNL1     -0.2836
     47 C         0.737879   -5.359468   -2.69324 C.3        1 UNL1     -0.0566
     48 O         -1.200728   -3.402789   -1.954807 O.3        1 UNL1     -0.3909
     49 C         -0.304138   -0.543696   -0.857621 C.3        1 UNL1     -0.0577
     50 O         2.736387   -2.361126   -0.1854 O.3        1 UNL1     -0.3910
     51 O         4.603379   -0.28039   0.371133 O.3        1 UNL1     -0.3753
     52 C         2.005069   1.090096   -1.96866 C.3        1 UNL1     -0.0564
     53 O         0.813299   1.789641   0.998274 O.3        1 UNL1     -0.4608
     54 C         -0.332632   1.424792   1.655281 C.2        1 UNL1     0.3042
     55 O         -0.993018   0.399585   1.491943 O.2        1 UNL1     -0.2512
     56 C         -0.750589   2.397646   2.720917 C.3        1 UNL1     0.0332
     57 C         3.147526   -0.708969   2.43055 C.3        1 UNL1     -0.0567
     58 C         5.412411   0.325607   -4.66884 C.3        1 UNL1     0.0210
     59 C         5.954818   -0.110064   0.795946 C.3        1 UNL1     0.0372
     60 C         4.489301   -0.20951   -1.951539 C.2        1 UNL1     -0.0208
     61 C         5.086771   -1.387809   -2.134257 C.2        1 UNL1     0.0882
     62 H         1.622646   -3.622918   -3.579748 H        1 UNL1     0.0365
     63 H         1.840805   -4.195154   -5.52787 H        1 UNL1     0.0576
     64 H         -0.774962   -5.389018   -6.636574 H        1 UNL1     0.0615
     65 H         1.98974   -4.745794   -7.940622 H        1 UNL1     0.0622
     66 H         4.879204   1.419325   -0.720682 H        1 UNL1     0.0645
     67 H         2.933431   2.25115   -0.571557 H        1 UNL1     0.0362
     68 H         2.69555   1.469898   1.46536 H        1 UNL1     0.0741
     69 H         1.146041   -0.573138   2.137236 H        1 UNL1     0.0359
     70 H         1.298194   -2.591371   1.186923 H        1 UNL1     0.0600
     71 H         -0.498678   -2.392278   -0.011544 H        1 UNL1     0.0348
     72 H         0.958768   -3.273644   -1.752548 H        1 UNL1     0.0602
     73 H         4.243655   0.396286   -2.788149 H        1 UNL1     0.0628
     74 H         5.318082   -2.092472   -1.334768 H        1 UNL1     0.1022
     75 H         -0.823771   -6.537543   -10.319841 H        1 UNL1     0.0279
     76 H         -1.267514   -4.902378   -10.607289 H        1 UNL1     0.0279
     77 H         0.037632   -5.720503   -11.557323 H        1 UNL1     0.0279
     78 H         0.641543   -3.010263   -10.890715 H        1 UNL1     0.1553
     79 H         -0.360811   -2.498273   -9.259955 H        1 UNL1     0.1484
     80 H         -0.393232   0.3194   -6.71061 H        1 UNL1     0.0317
     81 H         0.698738   0.296382   -8.087925 H        1 UNL1     0.0317
     82 H         -1.104303   -0.613473   -9.576182 H        1 UNL1     0.0428
     83 H         -1.552827   0.897577   -8.816408 H        1 UNL1     0.0428
     84 H         -3.105835   -2.652157   -7.05837 H        1 UNL1     0.0428
     85 H         -2.125842   -2.858018   -8.467752 H        1 UNL1     0.0428
     86 H         -1.027478   -3.242352   -6.260777 H        1 UNL1     0.0317
     87 H         -1.31394   -1.649417   -5.728942 H        1 UNL1     0.0317
     88 H         -4.127173   -1.520244   -9.037301 H        1 UNL1     0.0429
     89 H         -4.48784   -0.133909   -8.005686 H        1 UNL1     0.0429
     90 H         -2.747592   1.10959   -9.634469 H        1 UNL1     0.0308
     91 H         -3.54544   -1.378698   -11.228753 H        1 UNL1     0.0233
     92 H         -3.07927   0.147395   -12.021987 H        1 UNL1     0.0233
     93 H         -1.931135   -0.711285   -11.017469 H        1 UNL1     0.0233
     94 H         -5.132256   0.842619   -11.214875 H        1 UNL1     0.0233
     95 H         -5.546847   0.883033   -9.494175 H        1 UNL1     0.0233
     96 H         -4.592096   2.202607   -10.209135 H        1 UNL1     0.0233
     97 H         8.38715   -0.702125   -8.045757 H        1 UNL1     0.0280
     98 H         8.556852   -1.835835   -6.733091 H        1 UNL1     0.0280
     99 H         8.659844   -2.413321   -8.422953 H        1 UNL1     0.0280
     100 H         7.451329   -2.079876   -10.150713 H        1 UNL1     0.2922
     101 H         0.651642   -6.239165   -3.330699 H        1 UNL1     0.0236
     102 H         0.030863   -5.3839   -1.864678 H        1 UNL1     0.0236
     103 H         1.729329   -5.453249   -2.219504 H        1 UNL1     0.0236
     104 H         -1.283906   -3.429857   -0.981504 H        1 UNL1     0.2098
     105 H         0.071254   -0.020632   -1.733576 H        1 UNL1     0.0234
     106 H         -1.392206   -0.49031   -0.823201 H        1 UNL1     0.0234
     107 H         0.0   0.0   0.0 H        1 UNL1     0.0234
     108 H         3.401491   -1.646035   -0.192494 H        1 UNL1     0.2098
     109 H         0.944363   1.360687   -1.871733 H        1 UNL1     0.0234
     110 H         2.469347   1.701712   -2.74976 H        1 UNL1     0.0234
     111 H         2.015759   0.073872   -2.384739 H        1 UNL1     0.0234
     112 H         -0.782548   1.894687   3.692183 H        1 UNL1     0.0342
     113 H         -0.101948   3.271698   2.754706 H        1 UNL1     0.0342
     114 H         -1.766408   2.74577   2.488351 H        1 UNL1     0.0342
     115 H         2.883134   -0.343963   3.432575 H        1 UNL1     0.0234
     116 H         3.502293   -1.735908   2.538194 H        1 UNL1     0.0234
     117 H         4.016727   -0.071416   2.193997 H        1 UNL1     0.0234
     118 H         5.02284   0.654086   -5.648301 H        1 UNL1     0.0309
     119 H         4.832238   0.804574   -3.873735 H        1 UNL1     0.0309
     120 H         6.410119   0.776341   -4.629811 H        1 UNL1     0.0309
     121 H         6.474422   -1.053089   0.628401 H        1 UNL1     0.0524
     122 H         6.480943   0.666443   0.216061 H        1 UNL1     0.0524
     123 H         5.987287   0.153806   1.849233 H        1 UNL1     0.0524
@<TRIPOS>BOND
     1     1     2    1
     2     1    42    1
     3     2     3    2
     4     3     4    1
     5     4     5    2
     6     5     7    1
     7     6    75    1
     8     6    76    1
     9     6    77    1
    10     7     9   am
    11     9    10    1
    12    10    11    2
    13    10    43    1
    14    11    14    1
    15    11    15    1
    16    12    13   ar
    17    12    27   ar
    18    12    43    1
    19    13    14    1
    20    13    30   ar
    21    14    17    2
    22    15    16    1
    23    16    17    1
    24    16    18    1
    25    16    22    1
    26    18    19    1
    27    19    20    1
    28    20    21    1
    29    21    22    1
    30    23    24    1
    31    23    88    1
    32    23    89    1
    33    24    25    1
    34    24    26    1
    35    24    90    1
    36    25    91    1
    37    25    92    1
    38    25    93    1
    39    26    94    1
    40    26    95    1
    41    26    96    1
    42    27    28   ar
    43    28    29   ar
    44    29    30   ar
    45    29    31    1
    46    30    33    1
    47    31    32    1
    48    32    33    1
    49    32    35    1
    50    34    97    1
    51    34    98    1
    52    34    99    1
    53    35    61    1
    54    36    37    1
    55    36    60    1
    56    37    38    1
    57    38    39    1
    58    39    40    1
    59    40    41    1
    60    41    42    1
    61    45   100    1
    62    47   101    1
    63    47   102    1
    64    47   103    1
    65    48   104    1
    66    49   105    1
    67    49   106    1
    68    49   107    1
    69    50   108    1
    70    51    59    1
    71    52   109    1
    72    52   110    1
    73    52   111    1
    74    53    54    1
    75    54    55    2
    76    54    56    1
    77    56   112    1
    78    56   113    1
    79    56   114    1
    80    57   115    1
    81    57   116    1
    82    57   117    1
    83    58   118    1
    84    58   119    1
    85    58   120    1
    86    59   121    1
    87    59   122    1
    88    59   123    1
    89    60    61    2
    90     1    47    1
    91     1    62    1
    92     2    63    1
    93     3    64    1
    94     4    65    1
    95     5     6    1
    96     7     8    2
    97     9    78    1
    98    15    79    1
    99    18    80    1
   100    18    81    1
   101    19    82    1
   102    19    83    1
   103    20    23    1
   104    21    84    1
   105    21    85    1
   106    22    86    1
   107    22    87    1
   108    27    45    1
   109    28    34    1
   110    32    58    1
   111    33    46    2
   112    36    51    1
   113    36    66    1
   114    37    52    1
   115    37    67    1
   116    38    53    1
   117    38    68    1
   118    42    48    1
   119    42    72    1
   120    43    44    2
   121    60    73    1
   122    61    74    1
   123    39    69    1
   124    39    57    1
   125    40    70    1
   126    40    50    1
   127    41    71    1
   128    41    49    1
