@<TRIPOS>MOLECULE
*****
 123 128 0 0 0
SMALL
GASTEIGER

@<TRIPOS>ATOM
     1 C         5.16052   1.771603   0.479304 C.3        1 UNL1     0.0009
     2 C         6.597091   2.569456   -0.379025 C.2        1 UNL1     -0.0787
     3 C         7.881073   2.465369   -1.039785 C.2        1 UNL1     -0.0649
     4 C         8.756859   3.691881   -1.811162 C.2        1 UNL1     -0.0542
     5 C         9.778559   3.973756   -2.751244 C.2        1 UNL1     0.0115
     6 C         10.910995   3.339053   -3.60451 C.3        1 UNL1     -0.0348
     7 C         9.871088   5.448187   -3.379321 C.2        1 UNL1     0.2441
     8 O         10.69146   6.277826   -3.011607 O.2        1 UNL1     -0.2702
     9 N         9.123447   5.63557   -4.554937 N.am        1 UNL1     -0.2772
     10 C         7.838722   6.022923   -4.250371 C.2        1 UNL1     0.1049
     11 C         6.99507   5.053348   -3.946402 C.2        1 UNL1     0.0801
     12 C         6.531651   7.646247   -2.866998 C.ar        1 UNL1     0.0753
     13 C         5.774773   6.522747   -2.404947 C.ar        1 UNL1     0.0305
     14 C         5.897396   5.208028   -3.030671 C.2        1 UNL1     0.0924
     15 N         7.122124   3.722548   -4.085524 N.pl3        1 UNL1     -0.3170
     16 C         5.853221   3.124208   -3.765949 C.3        1 UNL1     0.1275
     17 N         5.211274   4.091852   -2.80195 N.2        1 UNL1     -0.2557
     18 C         5.003653   3.162025   -5.03264 C.3        1 UNL1     0.0016
     19 C         5.763669   2.463661   -6.148996 C.3        1 UNL1     0.0026
     20 N         6.036903   1.092233   -5.74211 N.3        1 UNL1     -0.3018
     21 C         6.797352   0.952471   -4.498506 C.3        1 UNL1     0.0026
     22 C         6.013473   1.657078   -3.389922 C.3        1 UNL1     0.0016
     23 C         6.486903   0.25777   -6.838384 C.3        1 UNL1     0.0012
     24 C         5.3349   -0.009692   -7.819765 C.3        1 UNL1     -0.0339
     25 C         5.370827   0.965129   -9.008248 C.3        1 UNL1     -0.0615
     26 C         5.369654   -1.456072   -8.281888 C.3        1 UNL1     -0.0615
     27 C         6.321704   8.921135   -2.346709 C.ar        1 UNL1     0.1347
     28 C         5.359221   9.201893   -1.393372 C.ar        1 UNL1     0.0342
     29 C         4.659823   8.072227   -0.918125 C.ar        1 UNL1     0.1435
     30 C         4.884503   6.783556   -1.403992 C.ar        1 UNL1     0.0774
     31 O         3.616169   8.1952   -0.069202 O.3        1 UNL1     -0.4436
     32 C         2.898596   6.958222   -0.195079 C.3        1 UNL1     0.3143
     33 C         3.916325   5.960466   -0.709785 C.2        1 UNL1     0.2504
     34 C         4.907072   10.572983   -0.974117 C.3        1 UNL1     -0.0327
     35 O         2.535688   6.539898   1.126494 O.2        1 UNL1     -0.4528
     36 C         -0.700435   4.592185   0.749646 C.3        1 UNL1     0.0854
     37 C         -0.999499   3.317567   -0.129804 C.3        1 UNL1     0.0236
     38 C         -1.5984   2.066466   0.675061 C.3        1 UNL1     0.1131
     39 C         -0.874595   1.557017   1.986105 C.3        1 UNL1     0.0200
     40 C         0.786909   1.417162   2.033868 C.3        1 UNL1     0.0661
     41 C         1.751767   0.63409   0.879114 C.3        1 UNL1     0.0091
     42 C         3.459785   0.993486   0.31439 C.3        1 UNL1     0.0661
     43 C         7.485363   7.424916   -3.982214 C.2        1 UNL1     0.2131
     44 O         7.884496   8.313502   -4.71286 O.2        1 UNL1     -0.2851
     45 O         7.132097   9.951832   -2.818264 O.3        1 UNL1     -0.5056
     46 O         3.93558   4.759048   -0.561199 O.2        1 UNL1     -0.2836
     47 C         5.554257   1.36462   1.924751 C.3        1 UNL1     -0.0566
     48 O         3.912368   -0.414884   0.418216 O.3        1 UNL1     -0.3909
     49 C         0.921661   0.380672   -0.359513 C.3        1 UNL1     -0.0577
     50 O         1.38237   2.642516   2.41024 O.3        1 UNL1     -0.3910
     51 O         -0.827737   4.422702   2.143383 O.3        1 UNL1     -0.3753
     52 C         0.048566   3.143277   -1.277032 C.3        1 UNL1     -0.0564
     53 O         -2.195425   1.012475   -0.210935 O.3        1 UNL1     -0.4608
     54 C         -2.426826   -0.289826   0.147388 C.2        1 UNL1     0.3042
     55 O         -1.853537   -1.293575   -0.274117 O.2        1 UNL1     -0.2512
     56 C         -3.469252   -0.442799   1.218211 C.3        1 UNL1     0.0332
     57 C         -1.601059   2.242365   3.235393 C.3        1 UNL1     -0.0567
     58 C         1.82562   7.183994   -1.28562 C.3        1 UNL1     0.0210
     59 C         -1.146489   5.611551   2.865118 C.3        1 UNL1     0.0372
     60 C         0.627286   5.221841   0.513312 C.2        1 UNL1     -0.0208
     61 C         1.536541   5.672648   1.378628 C.2        1 UNL1     0.0882
     62 H         4.681407   2.755503   0.550743 H        1 UNL1     0.0365
     63 H         6.327391   3.62388   -0.29002 H        1 UNL1     0.0576
     64 H         8.342231   1.496758   -1.245293 H        1 UNL1     0.0615
     65 H         8.266086   4.610813   -1.479215 H        1 UNL1     0.0622
     66 H         -1.44648   5.331777   0.426434 H        1 UNL1     0.0645
     67 H         -1.864309   3.61523   -0.747913 H        1 UNL1     0.0362
     68 H         -2.547731   2.505604   1.017771 H        1 UNL1     0.0741
     69 H         -1.203606   0.547911   2.195546 H        1 UNL1     0.0359
     70 H         0.898276   0.770266   2.925038 H        1 UNL1     0.0600
     71 H         1.79726   -0.380519   1.321219 H        1 UNL1     0.0348
     72 H         3.349777   1.495788   1.286453 H        1 UNL1     0.0602
     73 H         0.747401   5.404111   -0.525725 H        1 UNL1     0.0628
     74 H         1.516725   5.477763   2.451411 H        1 UNL1     0.1022
     75 H         10.93984   2.232527   -3.456855 H        1 UNL1     0.0279
     76 H         10.813408   3.428865   -4.684084 H        1 UNL1     0.0279
     77 H         11.915072   3.629676   -3.262356 H        1 UNL1     0.0279
     78 H         9.065485   4.757776   -5.066988 H        1 UNL1     0.1553
     79 H         7.79035   3.287508   -4.694743 H        1 UNL1     0.1484
     80 H         4.043328   2.671089   -4.833833 H        1 UNL1     0.0317
     81 H         4.774666   4.193966   -5.319546 H        1 UNL1     0.0317
     82 H         6.6934   2.994071   -6.402328 H        1 UNL1     0.0428
     83 H         5.140774   2.503716   -7.043115 H        1 UNL1     0.0428
     84 H         6.919966   -0.085427   -4.173629 H        1 UNL1     0.0428
     85 H         7.826612   1.322064   -4.605006 H        1 UNL1     0.0428
     86 H         6.528182   1.421736   -2.476862 H        1 UNL1     0.0317
     87 H         5.035132   1.178362   -3.260396 H        1 UNL1     0.0317
     88 H         7.282762   0.794136   -7.371502 H        1 UNL1     0.0429
     89 H         6.921385   -0.681391   -6.472357 H        1 UNL1     0.0429
     90 H         4.380083   0.114285   -7.295202 H        1 UNL1     0.0308
     91 H         6.325592   0.909356   -9.539676 H        1 UNL1     0.0233
     92 H         4.558441   0.752354   -9.707079 H        1 UNL1     0.0233
     93 H         5.240688   2.008575   -8.696608 H        1 UNL1     0.0233
     94 H         4.677836   -1.602007   -9.118504 H        1 UNL1     0.0233
     95 H         6.374875   -1.714081   -8.626744 H        1 UNL1     0.0233
     96 H         5.086653   -2.139307   -7.47624 H        1 UNL1     0.0233
     97 H         4.105608   10.531744   -0.242554 H        1 UNL1     0.0280
     98 H         5.714398   11.148999   -0.503281 H        1 UNL1     0.0280
     99 H         4.542862   11.126836   -1.854851 H        1 UNL1     0.0280
     100 H         6.663696   10.696707   -3.152007 H        1 UNL1     0.2922
     101 H         4.691385   0.935869   2.433947 H        1 UNL1     0.0236
     102 H         6.001043   2.179806   2.492939 H        1 UNL1     0.0236
     103 H         6.312916   0.564329   1.93754 H        1 UNL1     0.0236
     104 H         4.329593   -0.526757   1.294788 H        1 UNL1     0.2098
     105 H         0.707867   1.270277   -0.946631 H        1 UNL1     0.0234
     106 H         1.295195   -0.415835   -1.002923 H        1 UNL1     0.0234
     107 H         0.0   -0.0   0.0 H        1 UNL1     0.0234
     108 H         1.189131   3.288143   1.703421 H        1 UNL1     0.2098
     109 H         1.074116   3.050947   -0.893061 H        1 UNL1     0.0234
     110 H         -0.172877   2.298031   -1.937536 H        1 UNL1     0.0234
     111 H         0.060119   4.011041   -1.949936 H        1 UNL1     0.0234
     112 H         -3.590097   -1.500414   1.471576 H        1 UNL1     0.0342
     113 H         -3.236495   0.146941   2.103579 H        1 UNL1     0.0342
     114 H         -4.426715   -0.080545   0.819213 H        1 UNL1     0.0342
     115 H         -2.67001   1.991342   3.274371 H        1 UNL1     0.0234
     116 H         -1.166308   1.97825   4.201459 H        1 UNL1     0.0234
     117 H         -1.642926   3.343253   3.17032 H        1 UNL1     0.0234
     118 H         0.921352   7.672788   -0.882648 H        1 UNL1     0.0309
     119 H         2.195077   7.761832   -2.138736 H        1 UNL1     0.0309
     120 H         1.442117   6.244697   -1.698841 H        1 UNL1     0.0309
     121 H         -0.327191   6.315112   2.719832 H        1 UNL1     0.0524
     122 H         -2.066769   6.092384   2.49374 H        1 UNL1     0.0524
     123 H         -1.266599   5.389054   3.921605 H        1 UNL1     0.0524
@<TRIPOS>BOND
     1     1     2    1
     2     1    42    1
     3     2     3    2
     4     3     4    1
     5     4     5    2
     6     5     7    1
     7     6    75    1
     8     6    76    1
     9     6    77    1
    10     7     9   am
    11     9    10    1
    12    10    11    2
    13    10    43    1
    14    11    14    1
    15    11    15    1
    16    12    13   ar
    17    12    27   ar
    18    12    43    1
    19    13    14    1
    20    13    30   ar
    21    14    17    2
    22    15    16    1
    23    16    17    1
    24    16    18    1
    25    16    22    1
    26    18    19    1
    27    19    20    1
    28    20    21    1
    29    21    22    1
    30    23    24    1
    31    23    88    1
    32    23    89    1
    33    24    25    1
    34    24    26    1
    35    24    90    1
    36    25    91    1
    37    25    92    1
    38    25    93    1
    39    26    94    1
    40    26    95    1
    41    26    96    1
    42    27    28   ar
    43    28    29   ar
    44    29    30   ar
    45    29    31    1
    46    30    33    1
    47    31    32    1
    48    32    33    1
    49    32    35    1
    50    34    97    1
    51    34    98    1
    52    34    99    1
    53    35    61    1
    54    36    37    1
    55    36    60    1
    56    37    38    1
    57    38    39    1
    58    39    40    1
    59    40    41    1
    60    41    42    1
    61    45   100    1
    62    47   101    1
    63    47   102    1
    64    47   103    1
    65    48   104    1
    66    49   105    1
    67    49   106    1
    68    49   107    1
    69    50   108    1
    70    51    59    1
    71    52   109    1
    72    52   110    1
    73    52   111    1
    74    53    54    1
    75    54    55    2
    76    54    56    1
    77    56   112    1
    78    56   113    1
    79    56   114    1
    80    57   115    1
    81    57   116    1
    82    57   117    1
    83    58   118    1
    84    58   119    1
    85    58   120    1
    86    59   121    1
    87    59   122    1
    88    59   123    1
    89    60    61    2
    90     1    47    1
    91     1    62    1
    92     2    63    1
    93     3    64    1
    94     4    65    1
    95     5     6    1
    96     7     8    2
    97     9    78    1
    98    15    79    1
    99    18    80    1
   100    18    81    1
   101    19    82    1
   102    19    83    1
   103    20    23    1
   104    21    84    1
   105    21    85    1
   106    22    86    1
   107    22    87    1
   108    27    45    1
   109    28    34    1
   110    32    58    1
   111    33    46    2
   112    36    51    1
   113    36    66    1
   114    37    52    1
   115    37    67    1
   116    38    53    1
   117    38    68    1
   118    42    48    1
   119    42    72    1
   120    43    44    2
   121    60    73    1
   122    61    74    1
   123    39    69    1
   124    39    57    1
   125    40    70    1
   126    40    50    1
   127    41    71    1
   128    41    49    1
