@<TRIPOS>MOLECULE
*****
 123 128 0 0 0
SMALL
GASTEIGER

@<TRIPOS>ATOM
     1 C         -2.773498   1.300424   4.350228 C.3        1 UNL1     0.0009
     2 C         -4.376711   1.975616   4.991213 C.2        1 UNL1     -0.0787
     3 C         -5.19877   3.101436   5.382102 C.2        1 UNL1     -0.0649
     4 C         -6.829783   3.091045   5.836025 C.2        1 UNL1     -0.0542
     5 C         -7.999216   3.877209   5.982484 C.2        1 UNL1     0.0115
     6 C         -8.544145   5.331978   5.977683 C.3        1 UNL1     -0.0348
     7 C         -9.422593   3.141497   6.081041 C.2        1 UNL1     0.2441
     8 O         -10.017931   2.982944   7.137904 O.2        1 UNL1     -0.2702
     9 N         -10.060086   2.924425   4.84709 N.am        1 UNL1     -0.2772
     10 C         -9.660762   1.724509   4.304813 C.2        1 UNL1     0.1049
     11 C         -8.520269   1.737525   3.638985 C.2        1 UNL1     0.0801
     12 C         -9.357252   -0.697087   4.853527 C.ar        1 UNL1     0.0753
     13 C         -8.041037   -0.57588   4.304442 C.ar        1 UNL1     0.0305
     14 C         -7.628823   0.612132   3.560292 C.2        1 UNL1     0.0924
     15 N         -7.777055   2.775653   3.218922 N.pl3        1 UNL1     -0.3170
     16 C         -6.721481   2.254178   2.391829 C.3        1 UNL1     0.1275
     17 N         -6.496825   0.852723   2.904837 N.2        1 UNL1     -0.2557
     18 C         -7.28429   2.10383   0.981743 C.3        1 UNL1     0.0016
     19 C         -7.829563   3.449177   0.529736 C.3        1 UNL1     0.0026
     20 N         -6.749905   4.426087   0.561561 N.3        1 UNL1     -0.3018
     21 C         -6.103453   4.596058   1.864472 C.3        1 UNL1     0.0026
     22 C         -5.559017   3.233594   2.297112 C.3        1 UNL1     0.0016
     23 C         -7.082323   5.656653   -0.128257 C.3        1 UNL1     0.0012
     24 C         -5.897556   6.131176   -0.984358 C.3        1 UNL1     -0.0339
     25 C         -5.447491   5.043721   -1.973772 C.3        1 UNL1     -0.0615
     26 C         -6.255379   7.423062   -1.698342 C.3        1 UNL1     -0.0615
     27 C         -9.782018   -1.879027   5.455782 C.ar        1 UNL1     0.1347
     28 C         -8.996853   -3.015545   5.532549 C.ar        1 UNL1     0.0342
     29 C         -7.688142   -2.857302   5.029161 C.ar        1 UNL1     0.1435
     30 C         -7.236694   -1.667982   4.455636 C.ar        1 UNL1     0.0774
     31 O         -6.839017   -3.903539   4.932303 O.3        1 UNL1     -0.4436
     32 C         -5.850606   -3.481506   3.980564 C.3        1 UNL1     0.3143
     33 C         -5.890899   -1.967058   4.012741 C.2        1 UNL1     0.2504
     34 C         -9.466495   -4.386207   5.933573 C.3        1 UNL1     -0.0327
     35 O         -4.571352   -3.875764   4.491759 O.2        1 UNL1     -0.4528
     36 C         -2.388885   -4.516574   1.452962 C.3        1 UNL1     0.0854
     37 C         -2.022035   -3.543945   0.266819 C.3        1 UNL1     0.0236
     38 C         -0.450453   -3.348528   0.014451 C.3        1 UNL1     0.1131
     39 C         0.498068   -2.972507   1.223246 C.3        1 UNL1     0.0200
     40 C         0.035001   -1.815934   2.332455 C.3        1 UNL1     0.0661
     41 C         -0.552042   -0.267016   1.966609 C.3        1 UNL1     0.0091
     42 C         -1.766951   0.784821   2.851503 C.3        1 UNL1     0.0661
     43 C         -10.285718   0.447628   4.680788 C.2        1 UNL1     0.2131
     44 O         -11.497843   0.34533   4.735792 O.2        1 UNL1     -0.2851
     45 O         -11.062055   -1.898958   6.005824 O.3        1 UNL1     -0.5056
     46 O         -5.004815   -1.183998   3.752882 O.2        1 UNL1     -0.2836
     47 C         -1.687183   1.347256   5.458248 C.3        1 UNL1     -0.0566
     48 O         -0.926743   2.005211   2.789745 O.3        1 UNL1     -0.3909
     49 C         -0.910547   -0.215275   0.498178 C.3        1 UNL1     -0.0577
     50 O         -0.736843   -2.393482   3.366098 O.3        1 UNL1     -0.3910
     51 O         -1.309726   -4.952336   2.248548 O.3        1 UNL1     -0.3753
     52 C         -3.036135   -2.35942   0.150842 C.3        1 UNL1     -0.0564
     53 O         -0.128553   -2.717548   -1.30864 O.3        1 UNL1     -0.4608
     54 C         0.556547   -3.320028   -2.33118 C.2        1 UNL1     0.3042
     55 O         1.512333   -4.089262   -2.2385 O.2        1 UNL1     -0.2512
     56 C         -0.00157   -3.013381   -3.691763 C.3        1 UNL1     0.0332
     57 C         1.128039   -4.331944   1.782927 C.3        1 UNL1     -0.0567
     58 C         -6.342235   -3.964335   2.596112 C.3        1 UNL1     0.0210
     59 C         -0.276121   -5.631247   1.536785 C.3        1 UNL1     0.0372
     60 C         -3.430884   -4.00637   2.385212 C.2        1 UNL1     -0.0208
     61 C         -3.477877   -4.015999   3.718044 C.2        1 UNL1     0.0882
     62 H         -3.207645   0.293774   4.379967 H        1 UNL1     0.0365
     63 H         -4.919884   1.050646   5.195817 H        1 UNL1     0.0576
     64 H         -4.857089   4.131118   5.25515 H        1 UNL1     0.0615
     65 H         -7.044492   2.033549   6.012334 H        1 UNL1     0.0622
     66 H         -2.828218   -5.396608   0.962478 H        1 UNL1     0.0645
     67 H         -2.322217   -4.099898   -0.63837 H        1 UNL1     0.0362
     68 H         -0.178668   -4.379219   -0.260016 H        1 UNL1     0.0741
     69 H         1.420297   -2.56705   0.828903 H        1 UNL1     0.0359
     70 H         1.013072   -1.601781   2.804234 H        1 UNL1     0.0600
     71 H         0.395408   0.306692   1.979049 H        1 UNL1     0.0348
     72 H         -1.417178   0.04333   3.584419 H        1 UNL1     0.0602
     73 H         -4.281296   -3.703357   1.826435 H        1 UNL1     0.0628
     74 H         -2.63224   -4.256728   4.363169 H        1 UNL1     0.1022
     75 H         -7.702529   6.065801   5.962863 H        1 UNL1     0.0279
     76 H         -9.128584   5.628247   5.109509 H        1 UNL1     0.0279
     77 H         -9.049026   5.600084   6.917318 H        1 UNL1     0.0279
     78 H         -9.797821   3.658693   4.192763 H        1 UNL1     0.1553
     79 H         -8.128529   3.710989   3.126482 H        1 UNL1     0.1484
     80 H         -6.488699   1.749683   0.315125 H        1 UNL1     0.0317
     81 H         -8.07568   1.347104   0.954926 H        1 UNL1     0.0317
     82 H         -8.676523   3.774877   1.15142 H        1 UNL1     0.0428
     83 H         -8.227468   3.318878   -0.477113 H        1 UNL1     0.0428
     84 H         -5.245411   5.275117   1.843147 H        1 UNL1     0.0428
     85 H         -6.782083   5.046711   2.601825 H        1 UNL1     0.0428
     86 H         -4.981193   3.420766   3.183155 H        1 UNL1     0.0317
     87 H         -4.810977   2.882734   1.575704 H        1 UNL1     0.0317
     88 H         -7.934611   5.457209   -0.79092 H        1 UNL1     0.0429
     89 H         -7.398662   6.43611   0.576833 H        1 UNL1     0.0429
     90 H         -5.054681   6.375737   -0.327118 H        1 UNL1     0.0308
     91 H         -5.778419   5.270551   -2.99168 H        1 UNL1     0.0233
     92 H         -4.359967   4.939681   -1.965029 H        1 UNL1     0.0233
     93 H         -5.851221   4.055898   -1.720703 H        1 UNL1     0.0233
     94 H         -5.54161   7.618483   -2.505918 H        1 UNL1     0.0233
     95 H         -7.251809   7.341399   -2.141537 H        1 UNL1     0.0233
     96 H         -6.24284   8.274744   -1.012449 H        1 UNL1     0.0233
     97 H         -9.500748   -5.068371   5.089352 H        1 UNL1     0.0280
     98 H         -8.799721   -4.853019   6.670292 H        1 UNL1     0.0280
     99 H         -10.478962   -4.318103   6.364116 H        1 UNL1     0.0280
     100 H         -11.436737   -2.757656   6.094559 H        1 UNL1     0.2922
     101 H         -0.8326   0.739711   5.161207 H        1 UNL1     0.0236
     102 H         -2.065256   1.068463   6.441263 H        1 UNL1     0.0236
     103 H         -1.276141   2.361744   5.592606 H        1 UNL1     0.0236
     104 H         -1.081083   2.425933   1.921332 H        1 UNL1     0.2098
     105 H         -1.296634   -1.148967   0.09697 H        1 UNL1     0.0234
     106 H         -1.559634   0.613859   0.216844 H        1 UNL1     0.0234
     107 H         0.0   0.0   0.0 H        1 UNL1     0.0234
     108 H         -1.619088   -2.588104   2.995243 H        1 UNL1     0.2098
     109 H         -3.185726   -1.844461   1.110088 H        1 UNL1     0.0234
     110 H         -2.759383   -1.629579   -0.617587 H        1 UNL1     0.0234
     111 H         -4.030914   -2.707075   -0.158181 H        1 UNL1     0.0234
     112 H         0.595828   -3.513116   -4.460351 H        1 UNL1     0.0342
     113 H         -1.052396   -3.286802   -3.774512 H        1 UNL1     0.0342
     114 H         0.074528   -1.929929   -3.857608 H        1 UNL1     0.0342
     115 H         1.187537   -5.105265   1.00471 H        1 UNL1     0.0234
     116 H         2.127036   -4.216316   2.207995 H        1 UNL1     0.0234
     117 H         0.494297   -4.83392   2.534148 H        1 UNL1     0.0234
     118 H         -6.570391   -3.121703   1.920151 H        1 UNL1     0.0309
     119 H         -5.637006   -4.639611   2.101282 H        1 UNL1     0.0309
     120 H         -7.292296   -4.506773   2.65312 H        1 UNL1     0.0309
     121 H         0.673307   -5.180796   1.824944 H        1 UNL1     0.0524
     122 H         -0.226339   -6.702781   1.792471 H        1 UNL1     0.0524
     123 H         -0.428858   -5.531016   0.465935 H        1 UNL1     0.0524
@<TRIPOS>BOND
     1     1     2    1
     2     1    42    1
     3     2     3    2
     4     3     4    1
     5     4     5    2
     6     5     7    1
     7     6    75    1
     8     6    76    1
     9     6    77    1
    10     7     9   am
    11     9    10    1
    12    10    11    2
    13    10    43    1
    14    11    14    1
    15    11    15    1
    16    12    13   ar
    17    12    27   ar
    18    12    43    1
    19    13    14    1
    20    13    30   ar
    21    14    17    2
    22    15    16    1
    23    16    17    1
    24    16    18    1
    25    16    22    1
    26    18    19    1
    27    19    20    1
    28    20    21    1
    29    21    22    1
    30    23    24    1
    31    23    88    1
    32    23    89    1
    33    24    25    1
    34    24    26    1
    35    24    90    1
    36    25    91    1
    37    25    92    1
    38    25    93    1
    39    26    94    1
    40    26    95    1
    41    26    96    1
    42    27    28   ar
    43    28    29   ar
    44    29    30   ar
    45    29    31    1
    46    30    33    1
    47    31    32    1
    48    32    33    1
    49    32    35    1
    50    34    97    1
    51    34    98    1
    52    34    99    1
    53    35    61    1
    54    36    37    1
    55    36    60    1
    56    37    38    1
    57    38    39    1
    58    39    40    1
    59    40    41    1
    60    41    42    1
    61    45   100    1
    62    47   101    1
    63    47   102    1
    64    47   103    1
    65    48   104    1
    66    49   105    1
    67    49   106    1
    68    49   107    1
    69    50   108    1
    70    51    59    1
    71    52   109    1
    72    52   110    1
    73    52   111    1
    74    53    54    1
    75    54    55    2
    76    54    56    1
    77    56   112    1
    78    56   113    1
    79    56   114    1
    80    57   115    1
    81    57   116    1
    82    57   117    1
    83    58   118    1
    84    58   119    1
    85    58   120    1
    86    59   121    1
    87    59   122    1
    88    59   123    1
    89    60    61    2
    90     1    47    1
    91     1    62    1
    92     2    63    1
    93     3    64    1
    94     4    65    1
    95     5     6    1
    96     7     8    2
    97     9    78    1
    98    15    79    1
    99    18    80    1
   100    18    81    1
   101    19    82    1
   102    19    83    1
   103    20    23    1
   104    21    84    1
   105    21    85    1
   106    22    86    1
   107    22    87    1
   108    27    45    1
   109    28    34    1
   110    32    58    1
   111    33    46    2
   112    36    51    1
   113    36    66    1
   114    37    52    1
   115    37    67    1
   116    38    53    1
   117    38    68    1
   118    42    48    1
   119    42    72    1
   120    43    44    2
   121    60    73    1
   122    61    74    1
   123    39    69    1
   124    39    57    1
   125    40    70    1
   126    40    50    1
   127    41    71    1
   128    41    49    1
