@<TRIPOS>MOLECULE
*****
 123 128 0 0 0
SMALL
GASTEIGER

@<TRIPOS>ATOM
     1 C         -3.952635   0.287908   -1.157194 C.3        1 UNL1     0.0009
     2 C         -5.466339   -0.057246   -0.143978 C.2        1 UNL1     -0.0787
     3 C         -6.509979   -0.963719   0.286334 C.2        1 UNL1     -0.0649
     4 C         -7.693694   -0.701844   1.468112 C.2        1 UNL1     -0.0542
     5 C         -8.615759   -1.323756   2.345665 C.2        1 UNL1     0.0115
     6 C         -9.287579   -2.676279   2.709895 C.3        1 UNL1     -0.0348
     7 C         -9.202795   -0.481606   3.579829 C.2        1 UNL1     0.2441
     8 O         -10.323481   0.008886   3.5776 O.2        1 UNL1     -0.2702
     9 N         -8.447725   -0.565893   4.762587 N.am        1 UNL1     -0.2772
     10 C         -7.47021   0.402373   4.778283 C.2        1 UNL1     0.1049
     11 C         -6.358066   0.117307   4.125522 C.2        1 UNL1     0.0801
     12 C         -7.097007   2.850173   4.422851 C.ar        1 UNL1     0.0753
     13 C         -6.023035   2.48019   3.552044 C.ar        1 UNL1     0.0305
     14 C         -5.536201   1.104414   3.479353 C.2        1 UNL1     0.0924
     15 N         -5.930486   -1.050829   3.616444 N.pl3        1 UNL1     -0.3170
     16 C         -4.579977   -0.862021   3.157392 C.3        1 UNL1     0.1275
     17 N         -4.499982   0.604904   2.81177 N.2        1 UNL1     -0.2557
     18 C         -3.661564   -1.064753   4.358691 C.3        1 UNL1     0.0016
     19 C         -3.936067   -2.436229   4.954753 C.3        1 UNL1     0.0026
     20 N         -3.694549   -3.446698   3.934141 N.3        1 UNL1     -0.3018
     21 C         -4.488684   -3.298904   2.712718 C.3        1 UNL1     0.0026
     22 C         -4.193949   -1.916328   2.12833 C.3        1 UNL1     0.0016
     23 C         -3.635743   -4.790544   4.473831 C.3        1 UNL1     0.0012
     24 C         -2.357665   -4.981489   5.305583 C.3        1 UNL1     -0.0339
     25 C         -1.819698   -6.417081   5.188427 C.3        1 UNL1     -0.0615
     26 C         -1.31266   -3.957849   4.897042 C.3        1 UNL1     -0.0615
     27 C         -7.475307   4.181829   4.576798 C.ar        1 UNL1     0.1347
     28 C         -6.831012   5.23085   3.945539 C.ar        1 UNL1     0.0342
     29 C         -5.808578   4.838625   3.055622 C.ar        1 UNL1     0.1435
     30 C         -5.442595   3.505786   2.863743 C.ar        1 UNL1     0.0774
     31 O         -5.014893   5.748163   2.449148 O.3        1 UNL1     -0.4436
     32 C         -3.857474   5.003974   2.039956 C.3        1 UNL1     0.3143
     33 C         -4.324373   3.565455   1.945711 C.2        1 UNL1     0.2504
     34 C         -7.01413   6.691039   4.252807 C.3        1 UNL1     -0.0327
     35 O         -3.529261   5.424051   0.709894 O.2        1 UNL1     -0.4528
     36 C         0.232368   5.027717   0.391841 C.3        1 UNL1     0.0854
     37 C         1.119184   3.739404   0.595137 C.3        1 UNL1     0.0236
     38 C         2.056422   3.360704   -0.649819 C.3        1 UNL1     0.1131
     39 C         1.433102   3.261705   -2.100316 C.3        1 UNL1     0.0200
     40 C         -0.029594   2.496812   -2.340939 C.3        1 UNL1     0.0661
     41 C         -0.452179   0.957437   -1.767045 C.3        1 UNL1     0.0091
     42 C         -2.076873   0.288981   -1.238895 C.3        1 UNL1     0.0661
     43 C         -7.736308   1.77783   5.22512 C.2        1 UNL1     0.2131
     44 O         -8.357985   1.984881   6.251466 O.2        1 UNL1     -0.2851
     45 O         -8.560121   4.452273   5.408349 O.3        1 UNL1     -0.5056
     46 O         -3.886205   2.674907   1.252323 O.2        1 UNL1     -0.2836
     47 C         -4.333085   0.465644   -2.651734 C.3        1 UNL1     -0.0566
     48 O         -1.945615   -0.962058   -2.024253 O.3        1 UNL1     -0.3909
     49 C         0.559994   0.529177   -0.72801 C.3        1 UNL1     -0.0577
     50 O         -1.103002   3.395859   -2.147978 O.3        1 UNL1     -0.3910
     51 O         0.238783   5.581758   -0.904473 O.3        1 UNL1     -0.3753
     52 C         0.379499   2.651273   1.439996 C.3        1 UNL1     -0.0564
     53 O         3.128061   2.365197   -0.313841 O.3        1 UNL1     -0.4608
     54 C         3.566711   1.361001   -1.136707 C.2        1 UNL1     0.3042
     55 O         3.286115   0.16488   -1.070391 O.2        1 UNL1     -0.2512
     56 C         4.440595   1.842336   -2.259808 C.3        1 UNL1     0.0332
     57 C         1.665394   4.669923   -2.822212 C.3        1 UNL1     -0.0567
     58 C         -2.832293   5.121279   3.191812 C.3        1 UNL1     0.0210
     59 C         0.949634   6.812869   -1.026629 C.3        1 UNL1     0.0372
     60 C         -1.194564   4.87776   0.787492 C.2        1 UNL1     -0.0208
     61 C         -2.309478   5.259546   0.163034 C.2        1 UNL1     0.0882
     62 H         -3.914289   1.293925   -0.722257 H        1 UNL1     0.0365
     63 H         -5.648624   0.927382   0.291625 H        1 UNL1     0.0576
     64 H         -6.521061   -2.011546   -0.021956 H        1 UNL1     0.0615
     65 H         -7.652043   0.376455   1.644233 H        1 UNL1     0.0622
     66 H         0.660035   5.768866   1.081656 H        1 UNL1     0.0645
     67 H         1.866773   4.044585   1.347823 H        1 UNL1     0.0362
     68 H         2.703466   4.250889   -0.670434 H        1 UNL1     0.0741
     69 H         2.104521   2.692802   -2.729564 H        1 UNL1     0.0359
     70 H         0.011788   2.346559   -3.436736 H        1 UNL1     0.0600
     71 H         -0.148807   0.338027   -2.633794 H        1 UNL1     0.0348
     72 H         -2.298153   1.174974   -1.851568 H        1 UNL1     0.0602
     73 H         -1.244372   4.498706   1.77799 H        1 UNL1     0.0628
     74 H         -2.350225   5.603216   -0.871117 H        1 UNL1     0.1022
     75 H         -9.901516   -3.051564   1.855918 H        1 UNL1     0.0279
     76 H         -8.620035   -3.51282   2.90394 H        1 UNL1     0.0279
     77 H         -10.04959   -2.574413   3.496446 H        1 UNL1     0.0279
     78 H         -7.983512   -1.4706   4.808292 H        1 UNL1     0.1553
     79 H         -6.289635   -1.945073   3.896217 H        1 UNL1     0.1484
     80 H         -2.618982   -0.971664   4.031395 H        1 UNL1     0.0317
     81 H         -3.824449   -0.286109   5.111575 H        1 UNL1     0.0317
     82 H         -4.959502   -2.510532   5.350952 H        1 UNL1     0.0428
     83 H         -3.271945   -2.559316   5.810815 H        1 UNL1     0.0428
     84 H         -4.231457   -4.021643   1.932146 H        1 UNL1     0.0428
     85 H         -5.557751   -3.473903   2.896536 H        1 UNL1     0.0428
     86 H         -4.684898   -1.895083   1.173078 H        1 UNL1     0.0317
     87 H         -3.131033   -1.837871   1.869197 H        1 UNL1     0.0317
     88 H         -4.504309   -4.933405   5.12994 H        1 UNL1     0.0429
     89 H         -3.706502   -5.543271   3.678113 H        1 UNL1     0.0429
     90 H         -2.581075   -4.777231   6.359424 H        1 UNL1     0.0308
     91 H         -0.952948   -6.571273   5.838097 H        1 UNL1     0.0233
     92 H         -2.594904   -7.14237   5.446534 H        1 UNL1     0.0233
     93 H         -1.499966   -6.661287   4.168147 H        1 UNL1     0.0233
     94 H         -0.313062   -4.304863   5.180278 H        1 UNL1     0.0233
     95 H         -1.327322   -3.821524   3.812071 H        1 UNL1     0.0233
     96 H         -1.49177   -2.991498   5.376681 H        1 UNL1     0.0233
     97 H         -6.310777   7.31345   3.707712 H        1 UNL1     0.0280
     98 H         -8.013017   7.050666   3.973251 H        1 UNL1     0.0280
     99 H         -6.863951   6.862895   5.331235 H        1 UNL1     0.0280
     100 H         -8.408437   5.132086   6.041175 H        1 UNL1     0.2922
     101 H         -3.540576   1.003745   -3.171382 H        1 UNL1     0.0236
     102 H         -5.306475   0.934045   -2.793488 H        1 UNL1     0.0236
     103 H         -4.406905   -0.500667   -3.178028 H        1 UNL1     0.0236
     104 H         -1.043943   -0.980854   -2.400557 H        1 UNL1     0.2098
     105 H         1.333153   -0.137216   -1.102118 H        1 UNL1     0.0234
     106 H         1.007125   1.347317   -0.163521 H        1 UNL1     0.0234
     107 H         0.0   0.0   0.0 H        1 UNL1     0.0234
     108 H         -0.988007   4.126181   -2.78608 H        1 UNL1     0.2098
     109 H         0.124037   3.009166   2.447153 H        1 UNL1     0.0234
     110 H         -0.520035   2.263648   0.949762 H        1 UNL1     0.0234
     111 H         1.00506   1.761359   1.590571 H        1 UNL1     0.0234
     112 H         5.303229   1.178365   -2.370945 H        1 UNL1     0.0342
     113 H         3.892223   1.930561   -3.196477 H        1 UNL1     0.0342
     114 H         4.815985   2.841317   -1.998496 H        1 UNL1     0.0342
     115 H         1.809243   4.554788   -3.905374 H        1 UNL1     0.0234
     116 H         0.853598   5.384589   -2.672913 H        1 UNL1     0.0234
     117 H         2.609883   5.162063   -2.532936 H        1 UNL1     0.0234
     118 H         -2.005883   5.809787   2.942798 H        1 UNL1     0.0309
     119 H         -3.284173   5.431973   4.139164 H        1 UNL1     0.0309
     120 H         -2.319686   4.174958   3.396307 H        1 UNL1     0.0309
     121 H         0.524824   7.356581   -1.869997 H        1 UNL1     0.0524
     122 H         0.840856   7.449264   -0.132646 H        1 UNL1     0.0524
     123 H         2.005361   6.621964   -1.197185 H        1 UNL1     0.0524
@<TRIPOS>BOND
     1     1     2    1
     2     1    42    1
     3     2     3    2
     4     3     4    1
     5     4     5    2
     6     5     7    1
     7     6    75    1
     8     6    76    1
     9     6    77    1
    10     7     9   am
    11     9    10    1
    12    10    11    2
    13    10    43    1
    14    11    14    1
    15    11    15    1
    16    12    13   ar
    17    12    27   ar
    18    12    43    1
    19    13    14    1
    20    13    30   ar
    21    14    17    2
    22    15    16    1
    23    16    17    1
    24    16    18    1
    25    16    22    1
    26    18    19    1
    27    19    20    1
    28    20    21    1
    29    21    22    1
    30    23    24    1
    31    23    88    1
    32    23    89    1
    33    24    25    1
    34    24    26    1
    35    24    90    1
    36    25    91    1
    37    25    92    1
    38    25    93    1
    39    26    94    1
    40    26    95    1
    41    26    96    1
    42    27    28   ar
    43    28    29   ar
    44    29    30   ar
    45    29    31    1
    46    30    33    1
    47    31    32    1
    48    32    33    1
    49    32    35    1
    50    34    97    1
    51    34    98    1
    52    34    99    1
    53    35    61    1
    54    36    37    1
    55    36    60    1
    56    37    38    1
    57    38    39    1
    58    39    40    1
    59    40    41    1
    60    41    42    1
    61    45   100    1
    62    47   101    1
    63    47   102    1
    64    47   103    1
    65    48   104    1
    66    49   105    1
    67    49   106    1
    68    49   107    1
    69    50   108    1
    70    51    59    1
    71    52   109    1
    72    52   110    1
    73    52   111    1
    74    53    54    1
    75    54    55    2
    76    54    56    1
    77    56   112    1
    78    56   113    1
    79    56   114    1
    80    57   115    1
    81    57   116    1
    82    57   117    1
    83    58   118    1
    84    58   119    1
    85    58   120    1
    86    59   121    1
    87    59   122    1
    88    59   123    1
    89    60    61    2
    90     1    47    1
    91     1    62    1
    92     2    63    1
    93     3    64    1
    94     4    65    1
    95     5     6    1
    96     7     8    2
    97     9    78    1
    98    15    79    1
    99    18    80    1
   100    18    81    1
   101    19    82    1
   102    19    83    1
   103    20    23    1
   104    21    84    1
   105    21    85    1
   106    22    86    1
   107    22    87    1
   108    27    45    1
   109    28    34    1
   110    32    58    1
   111    33    46    2
   112    36    51    1
   113    36    66    1
   114    37    52    1
   115    37    67    1
   116    38    53    1
   117    38    68    1
   118    42    48    1
   119    42    72    1
   120    43    44    2
   121    60    73    1
   122    61    74    1
   123    39    69    1
   124    39    57    1
   125    40    70    1
   126    40    50    1
   127    41    71    1
   128    41    49    1
