@<TRIPOS>MOLECULE
*****
 123 128 0 0 0
SMALL
GASTEIGER

@<TRIPOS>ATOM
     1 C         0.374384   2.822022   3.65935 C.3        1 UNL1     0.0009
     2 C         0.643754   4.634682   3.939957 C.2        1 UNL1     -0.0787
     3 C         1.532802   5.774258   4.023661 C.2        1 UNL1     -0.0649
     4 C         1.119672   7.403868   4.223788 C.2        1 UNL1     -0.0542
     5 C         1.561464   8.741052   4.069391 C.2        1 UNL1     0.0115
     6 C         2.798288   9.627718   3.757284 C.3        1 UNL1     -0.0348
     7 C         0.474906   9.922733   4.066188 C.2        1 UNL1     0.2441
     8 O         0.273515   10.644143   5.033418 O.2        1 UNL1     -0.2702
     9 N         -0.043709   10.242547   2.799338 N.am        1 UNL1     -0.2772
     10 C         -1.137311   9.457048   2.515879 C.2        1 UNL1     0.1049
     11 C         -0.880913   8.254101   2.034837 C.2        1 UNL1     0.0801
     12 C         -3.304709   8.654574   3.472831 C.ar        1 UNL1     0.0753
     13 C         -2.883546   7.334177   3.115364 C.ar        1 UNL1     0.0305
     14 C         -1.71627   7.106943   2.266316 C.2        1 UNL1     0.0924
     15 N         0.270486   7.734969   1.575151 N.pl3        1 UNL1     -0.3170
     16 C         -0.024438   6.446457   1.006812 C.3        1 UNL1     0.1275
     17 N         -1.243877   5.971942   1.758827 N.2        1 UNL1     -0.2557
     18 C         -0.477832   6.679585   -0.431168 C.3        1 UNL1     0.0016
     19 C         0.605713   7.455414   -1.163021 C.3        1 UNL1     0.0026
     20 N         1.841308   6.685603   -1.121493 N.3        1 UNL1     -0.3018
     21 C         2.324967   6.358138   0.221344 C.3        1 UNL1     0.0026
     22 C         1.22274   5.575138   0.936815 C.3        1 UNL1     0.0016
     23 C         2.848454   7.185924   -2.035812 C.3        1 UNL1     0.0012
     24 C         4.001076   7.843107   -1.260358 C.3        1 UNL1     -0.0339
     25 C         3.960648   9.375133   -1.384135 C.3        1 UNL1     -0.0615
     26 C         3.971969   7.39864   0.191669 C.3        1 UNL1     -0.0615
     27 C         -4.485137   8.868836   4.180503 C.ar        1 UNL1     0.1347
     28 C         -5.343668   7.848653   4.549557 C.ar        1 UNL1     0.0342
     29 C         -4.884258   6.55332   4.22984 C.ar        1 UNL1     0.1435
     30 C         -3.686248   6.32097   3.55308 C.ar        1 UNL1     0.0774
     31 O         -5.657786   5.463094   4.424953 O.3        1 UNL1     -0.4436
     32 C         -5.084347   4.455366   3.578475 C.3        1 UNL1     0.3143
     33 C         -3.646467   4.885256   3.368931 C.2        1 UNL1     0.2504
     34 C         -6.738621   8.019958   5.083281 C.3        1 UNL1     -0.0327
     35 O         -5.049904   3.236268   4.330715 O.2        1 UNL1     -0.4528
     36 C         -5.387015   0.43607   1.790374 C.3        1 UNL1     0.0854
     37 C         -4.486085   0.114706   0.536351 C.3        1 UNL1     0.0236
     38 C         -3.890875   -1.373848   0.495412 C.3        1 UNL1     0.1131
     39 C         -3.136958   -1.953012   1.75971 C.3        1 UNL1     0.0200
     40 C         -2.040631   -1.012464   2.593901 C.3        1 UNL1     0.0661
     41 C         -0.764977   -0.12911   1.908334 C.3        1 UNL1     0.0091
     42 C         -0.001741   1.456426   2.426938 C.3        1 UNL1     0.0661
     43 C         -2.488586   9.79495   2.987294 C.2        1 UNL1     0.2131
     44 O         -2.916657   10.929359   2.875006 O.2        1 UNL1     -0.2851
     45 O         -4.799485   10.180871   4.528622 O.3        1 UNL1     -0.5056
     46 O         -2.68142   4.195438   3.126676 O.2        1 UNL1     -0.2836
     47 C         0.841348   2.009501   4.896983 C.3        1 UNL1     -0.0566
     48 O         1.3896   0.958407   2.303395 O.3        1 UNL1     -0.3909
     49 C         -0.975131   -0.049255   0.41269 C.3        1 UNL1     -0.0577
     50 O         -2.693476   -0.234588   3.57697 O.3        1 UNL1     -0.3910
     51 O         -5.416728   -0.55075   2.796722 O.3        1 UNL1     -0.3753
     52 C         -3.649544   1.357053   0.087215 C.3        1 UNL1     -0.0564
     53 O         -3.343455   -1.765069   -0.84608 O.3        1 UNL1     -0.4608
     54 C         -2.021152   -1.982764   -1.13253 C.2        1 UNL1     0.3042
     55 O         -1.089011   -2.072439   -0.334464 O.2        1 UNL1     -0.2512
     56 C         -1.747668   -2.181315   -2.596258 C.3        1 UNL1     0.0332
     57 C         -4.19871   -2.792745   2.611593 C.3        1 UNL1     -0.0567
     58 C         -5.832548   4.541056   2.227778 C.3        1 UNL1     0.0210
     59 C         -4.236641   -0.628515   3.594977 C.3        1 UNL1     0.0372
     60 C         -5.08762   1.728418   2.465177 C.2        1 UNL1     -0.0208
     61 C         -4.964593   2.018817   3.761047 C.2        1 UNL1     0.0882
     62 H         -0.703728   2.983185   3.779398 H        1 UNL1     0.0365
     63 H         -0.367597   4.952674   4.201721 H        1 UNL1     0.0576
     64 H         2.596641   5.688595   3.791245 H        1 UNL1     0.0615
     65 H         0.069905   7.371154   4.527763 H        1 UNL1     0.0622
     66 H         -6.402407   0.537499   1.38204 H        1 UNL1     0.0645
     67 H         -5.198716   0.089377   -0.306309 H        1 UNL1     0.0362
     68 H         -4.82916   -1.945345   0.428069 H        1 UNL1     0.0741
     69 H         -2.536961   -2.798337   1.450134 H        1 UNL1     0.0359
     70 H         -1.513342   -1.798169   3.168091 H        1 UNL1     0.0600
     71 H         0.046951   -0.879753   1.973641 H        1 UNL1     0.0348
     72 H         -0.532545   1.07221   3.310081 H        1 UNL1     0.0602
     73 H         -5.09532   2.508478   1.744972 H        1 UNL1     0.0628
     74 H         -4.889358   1.275233   4.555188 H        1 UNL1     0.1022
     75 H         3.148208   10.151098   4.679598 H        1 UNL1     0.0279
     76 H         3.695827   9.109516   3.427192 H        1 UNL1     0.0279
     77 H         2.557414   10.478613   3.103328 H        1 UNL1     0.0279
     78 H         0.658635   10.058785   2.085881 H        1 UNL1     0.1553
     79 H         1.055648   8.289461   1.287069 H        1 UNL1     0.1484
     80 H         -0.667708   5.710277   -0.907776 H        1 UNL1     0.0317
     81 H         -1.422706   7.232854   -0.458709 H        1 UNL1     0.0317
     82 H         0.749281   8.457853   -0.733583 H        1 UNL1     0.0428
     83 H         0.261172   7.612275   -2.185633 H        1 UNL1     0.0428
     84 H         3.208959   5.712876   0.223925 H        1 UNL1     0.0428
     85 H         2.64713   7.25421   0.769598 H        1 UNL1     0.0428
     86 H         1.658338   5.239528   1.859641 H        1 UNL1     0.0317
     87 H         1.016833   4.641584   0.399064 H        1 UNL1     0.0317
     88 H         3.248721   6.334776   -2.602051 H        1 UNL1     0.0429
     89 H         2.4144   7.881877   -2.76521 H        1 UNL1     0.0429
     90 H         4.955626   7.485239   -1.664063 H        1 UNL1     0.0308
     91 H         4.948143   9.78103   -1.623309 H        1 UNL1     0.0233
     92 H         3.250407   9.681747   -2.155598 H        1 UNL1     0.0233
     93 H         3.633265   9.860549   -0.456759 H        1 UNL1     0.0233
     94 H         2.998838   7.63009   0.63808 H        1 UNL1     0.0233
     95 H         4.123096   6.317358   0.254536 H        1 UNL1     0.0233
     96 H         4.748547   7.898256   0.777568 H        1 UNL1     0.0233
     97 H         -7.291933   8.780649   4.540672 H        1 UNL1     0.0280
     98 H         -7.330471   7.099294   4.997562 H        1 UNL1     0.0280
     99 H         -6.694089   8.315821   6.144213 H        1 UNL1     0.0280
     100 H         -4.086996   10.78982   4.443987 H        1 UNL1     0.2922
     101 H         1.686536   2.510679   5.368295 H        1 UNL1     0.0236
     102 H         1.059941   0.967063   4.667803 H        1 UNL1     0.0236
     103 H         0.067373   1.968423   5.681501 H        1 UNL1     0.0236
     104 H         1.363827   0.140719   1.768893 H        1 UNL1     0.2098
     105 H         -1.475149   -0.913468   -0.017346 H        1 UNL1     0.0234
     106 H         -1.446961   0.870652   0.067618 H        1 UNL1     0.0234
     107 H         0.0   0.0   0.0 H        1 UNL1     0.0234
     108 H         -2.096842   -0.181565   4.348322 H        1 UNL1     0.2098
     109 H         -2.652313   1.07651   -0.279578 H        1 UNL1     0.0234
     110 H         -4.158054   1.969019   -0.665552 H        1 UNL1     0.0234
     111 H         -3.475438   2.050535   0.920712 H        1 UNL1     0.0234
     112 H         -2.679168   -2.095237   -3.163924 H        1 UNL1     0.0342
     113 H         -0.99657   -1.487253   -2.970385 H        1 UNL1     0.0342
     114 H         -1.359886   -3.199526   -2.737809 H        1 UNL1     0.0342
     115 H         -4.57252   -2.223375   3.473725 H        1 UNL1     0.0234
     116 H         -5.06545   -3.125348   2.036975 H        1 UNL1     0.0234
     117 H         -3.762712   -3.674729   3.111545 H        1 UNL1     0.0234
     118 H         -5.702716   3.626414   1.623147 H        1 UNL1     0.0309
     119 H         -6.901693   4.746665   2.341166 H        1 UNL1     0.0309
     120 H         -5.439039   5.330909   1.578632 H        1 UNL1     0.0309
     121 H         -4.546815   -0.78845   4.627242 H        1 UNL1     0.0524
     122 H         -3.591857   -1.475509   3.307067 H        1 UNL1     0.0524
     123 H         -3.666311   0.292439   3.513366 H        1 UNL1     0.0524
@<TRIPOS>BOND
     1     1     2    1
     2     1    42    1
     3     2     3    2
     4     3     4    1
     5     4     5    2
     6     5     7    1
     7     6    75    1
     8     6    76    1
     9     6    77    1
    10     7     9   am
    11     9    10    1
    12    10    11    2
    13    10    43    1
    14    11    14    1
    15    11    15    1
    16    12    13   ar
    17    12    27   ar
    18    12    43    1
    19    13    14    1
    20    13    30   ar
    21    14    17    2
    22    15    16    1
    23    16    17    1
    24    16    18    1
    25    16    22    1
    26    18    19    1
    27    19    20    1
    28    20    21    1
    29    21    22    1
    30    23    24    1
    31    23    88    1
    32    23    89    1
    33    24    25    1
    34    24    26    1
    35    24    90    1
    36    25    91    1
    37    25    92    1
    38    25    93    1
    39    26    94    1
    40    26    95    1
    41    26    96    1
    42    27    28   ar
    43    28    29   ar
    44    29    30   ar
    45    29    31    1
    46    30    33    1
    47    31    32    1
    48    32    33    1
    49    32    35    1
    50    34    97    1
    51    34    98    1
    52    34    99    1
    53    35    61    1
    54    36    37    1
    55    36    60    1
    56    37    38    1
    57    38    39    1
    58    39    40    1
    59    40    41    1
    60    41    42    1
    61    45   100    1
    62    47   101    1
    63    47   102    1
    64    47   103    1
    65    48   104    1
    66    49   105    1
    67    49   106    1
    68    49   107    1
    69    50   108    1
    70    51    59    1
    71    52   109    1
    72    52   110    1
    73    52   111    1
    74    53    54    1
    75    54    55    2
    76    54    56    1
    77    56   112    1
    78    56   113    1
    79    56   114    1
    80    57   115    1
    81    57   116    1
    82    57   117    1
    83    58   118    1
    84    58   119    1
    85    58   120    1
    86    59   121    1
    87    59   122    1
    88    59   123    1
    89    60    61    2
    90     1    47    1
    91     1    62    1
    92     2    63    1
    93     3    64    1
    94     4    65    1
    95     5     6    1
    96     7     8    2
    97     9    78    1
    98    15    79    1
    99    18    80    1
   100    18    81    1
   101    19    82    1
   102    19    83    1
   103    20    23    1
   104    21    84    1
   105    21    85    1
   106    22    86    1
   107    22    87    1
   108    27    45    1
   109    28    34    1
   110    32    58    1
   111    33    46    2
   112    36    51    1
   113    36    66    1
   114    37    52    1
   115    37    67    1
   116    38    53    1
   117    38    68    1
   118    42    48    1
   119    42    72    1
   120    43    44    2
   121    60    73    1
   122    61    74    1
   123    39    69    1
   124    39    57    1
   125    40    70    1
   126    40    50    1
   127    41    71    1
   128    41    49    1
