@<TRIPOS>MOLECULE
*****
 123 128 0 0 0
SMALL
GASTEIGER

@<TRIPOS>ATOM
     1 C         4.608357   2.828235   0.654408 C.3        1 UNL1     0.0009
     2 C         5.642843   4.203225   -0.035721 C.2        1 UNL1     -0.0787
     3 C         6.824116   4.654072   -0.740971 C.2        1 UNL1     -0.0649
     4 C         7.206814   6.229406   -1.22905 C.2        1 UNL1     -0.0542
     5 C         7.994761   7.013707   -2.107167 C.2        1 UNL1     0.0115
     6 C         9.172268   6.967244   -3.119413 C.3        1 UNL1     -0.0348
     7 C         7.574844   8.539938   -2.374143 C.2        1 UNL1     0.2441
     8 O         8.140754   9.487751   -1.846958 O.2        1 UNL1     -0.2702
     9 N         6.68945   8.72767   -3.449776 N.am        1 UNL1     -0.2772
     10 C         5.385878   8.61446   -3.024095 C.2        1 UNL1     0.1049
     11 C         4.908611   7.38656   -2.930814 C.2        1 UNL1     0.0801
     12 C         3.799585   9.406387   -1.259482 C.ar        1 UNL1     0.0753
     13 C         3.467047   8.029902   -1.051361 C.ar        1 UNL1     0.0305
     14 C         3.91483   6.986968   -1.971595 C.2        1 UNL1     0.0924
     15 N         5.41515   6.226294   -3.382176 N.pl3        1 UNL1     -0.3170
     16 C         4.424592   5.203746   -3.173741 C.3        1 UNL1     0.1275
     17 N         3.623341   5.689432   -1.990597 N.2        1 UNL1     -0.2557
     18 C         3.478232   5.240435   -4.369884 C.3        1 UNL1     0.0016
     19 C         4.294877   5.073518   -5.641426 C.3        1 UNL1     0.0026
     20 N         5.008032   3.805374   -5.576245 N.3        1 UNL1     -0.3018
     21 C         5.898193   3.651198   -4.423765 C.3        1 UNL1     0.0026
     22 C         5.05625   3.817999   -3.157588 C.3        1 UNL1     0.0016
     23 C         5.573706   3.410333   -6.850843 C.3        1 UNL1     0.0012
     24 C         4.461549   3.008298   -7.832287 C.3        1 UNL1     -0.0339
     25 C         4.129385   4.15186   -8.804907 C.3        1 UNL1     -0.0615
     26 C         4.853047   1.741049   -8.57228 C.3        1 UNL1     -0.0615
     27 C         3.270208   10.407396   -0.448396 C.ar        1 UNL1     0.1347
     28 C         2.370536   10.159068   0.572865 C.ar        1 UNL1     0.0342
     29 C         2.095703   8.792242   0.790621 C.ar        1 UNL1     0.1435
     30 C         2.646712   7.775804   0.009299 C.ar        1 UNL1     0.0774
     31 O         1.155855   8.394684   1.675855 O.3        1 UNL1     -0.4436
     32 C         0.834648   7.051229   1.284924 C.3        1 UNL1     0.3143
     33 C         2.047182   6.560634   0.51988 C.2        1 UNL1     0.2504
     34 C         1.572244   11.193979   1.31569 C.3        1 UNL1     -0.0327
     35 O         0.75139   6.267692   2.481749 O.2        1 UNL1     -0.4528
     36 C         -1.769782   3.52442   1.756325 C.3        1 UNL1     0.0854
     37 C         -1.75983   2.439367   0.611736 C.3        1 UNL1     0.0236
     38 C         -1.869168   0.921712   1.118207 C.3        1 UNL1     0.1131
     39 C         -0.895667   0.399829   2.250551 C.3        1 UNL1     0.0200
     40 C         0.726725   0.785756   2.213887 C.3        1 UNL1     0.0661
     41 C         1.759156   0.613509   0.878962 C.3        1 UNL1     0.0091
     42 C         3.212907   1.606372   0.36298 C.3        1 UNL1     0.0661
     43 C         4.656526   9.741428   -2.42381 C.2        1 UNL1     0.2131
     44 O         4.693063   10.844976   -2.937214 O.2        1 UNL1     -0.2851
     45 O         3.680431   11.717049   -0.689151 O.3        1 UNL1     -0.5056
     46 O         2.441985   5.424463   0.38168 O.2        1 UNL1     -0.2836
     47 C         5.251798   2.268005   1.951369 C.3        1 UNL1     -0.0566
     48 O         4.076268   0.425483   0.119615 O.3        1 UNL1     -0.3909
     49 C         0.921716   0.381156   -0.358859 C.3        1 UNL1     -0.0577
     50 O         0.961234   2.026383   2.849162 O.3        1 UNL1     -0.3910
     51 O         -1.697112   3.030001   3.074544 O.3        1 UNL1     -0.3753
     52 C         -0.830843   2.85456   -0.575507 C.3        1 UNL1     -0.0564
     53 O         -2.208772   -0.052226   0.028051 O.3        1 UNL1     -0.4608
     54 C         -1.999869   -1.405681   0.077534 C.2        1 UNL1     0.3042
     55 O         -1.196391   -2.062051   -0.583859 O.2        1 UNL1     -0.2512
     56 C         -2.83441   -2.105579   1.112134 C.3        1 UNL1     0.0332
     57 C         -1.663   0.536949   3.64718 C.3        1 UNL1     -0.0567
     58 C         -0.362083   7.153411   0.310798 C.3        1 UNL1     0.0210
     59 C         -2.283196   3.874072   4.06445 C.3        1 UNL1     0.0372
     60 C         -0.724368   4.576746   1.634338 C.2        1 UNL1     -0.0208
     61 C         0.090609   5.096272   2.553386 C.2        1 UNL1     0.0882
     62 H         3.865421   3.57096   0.969236 H        1 UNL1     0.0365
     63 H         5.079055   5.07361   0.306394 H        1 UNL1     0.0576
     64 H         7.531731   3.94842   -1.181929 H        1 UNL1     0.0615
     65 H         6.498979   6.852784   -0.676009 H        1 UNL1     0.0622
     66 H         -2.732665   4.041147   1.638443 H        1 UNL1     0.0645
     67 H         -2.732532   2.572984   0.107201 H        1 UNL1     0.0362
     68 H         -2.866397   0.954285   1.58296 H        1 UNL1     0.0741
     69 H         -0.882717   -0.681694   2.227147 H        1 UNL1     0.0359
     70 H         1.117951   0.032783   2.924544 H        1 UNL1     0.0600
     71 H         2.15264   -0.404339   1.068997 H        1 UNL1     0.0348
     72 H         3.056832   1.828401   1.428653 H        1 UNL1     0.0602
     73 H         -0.771459   5.005   0.663962 H        1 UNL1     0.0628
     74 H         0.240047   4.68087   3.550555 H        1 UNL1     0.1022
     75 H         9.547528   5.922018   -3.236535 H        1 UNL1     0.0279
     76 H         8.942419   7.249844   -4.144291 H        1 UNL1     0.0279
     77 H         10.071882   7.480357   -2.749131 H        1 UNL1     0.0279
     78 H         6.846197   8.007244   -4.151554 H        1 UNL1     0.1553
     79 H         6.117372   6.165507   -4.096405 H        1 UNL1     0.1484
     80 H         2.735626   4.440524   -4.262909 H        1 UNL1     0.0317
     81 H         2.921403   6.183152   -4.399512 H        1 UNL1     0.0317
     82 H         4.991031   5.911882   -5.791186 H        1 UNL1     0.0428
     83 H         3.600844   5.104427   -6.48191 H        1 UNL1     0.0428
     84 H         6.35983   2.661233   -4.355426 H        1 UNL1     0.0428
     85 H         6.752093   4.34104   -4.471619 H        1 UNL1     0.0428
     86 H         5.708374   3.568321   -2.341265 H        1 UNL1     0.0317
     87 H         4.285806   3.038475   -3.114513 H        1 UNL1     0.0317
     88 H         6.112543   4.271591   -7.266997 H        1 UNL1     0.0429
     89 H         6.305564   2.601471   -6.728781 H        1 UNL1     0.0429
     90 H         3.556587   2.757256   -7.266395 H        1 UNL1     0.0308
     91 H         5.015015   4.468317   -9.364028 H        1 UNL1     0.0233
     92 H         3.351162   3.846838   -9.508427 H        1 UNL1     0.0233
     93 H         3.744481   5.040054   -8.289354 H        1 UNL1     0.0233
     94 H         4.160496   1.558359   -9.401034 H        1 UNL1     0.0233
     95 H         5.858059   1.847684   -8.990061 H        1 UNL1     0.0233
     96 H         4.836579   0.87096   -7.909978 H        1 UNL1     0.0233
     97 H         0.899442   10.746266   2.041031 H        1 UNL1     0.0280
     98 H         2.212605   11.881215   1.883933 H        1 UNL1     0.0280
     99 H         0.970322   11.778767   0.60098 H        1 UNL1     0.0280
     100 H         2.978148   12.328705   -0.824421 H        1 UNL1     0.2922
     101 H         4.608552   1.498855   2.378334 H        1 UNL1     0.0236
     102 H         5.499461   3.042747   2.676228 H        1 UNL1     0.0236
     103 H         6.207092   1.754582   1.751358 H        1 UNL1     0.0236
     104 H         4.590956   0.263471   0.934366 H        1 UNL1     0.2098
     105 H         0.709357   1.279776   -0.932617 H        1 UNL1     0.0234
     106 H         1.288183   -0.408201   -1.015017 H        1 UNL1     0.0234
     107 H         0.0   -0.0   0.0 H        1 UNL1     0.0234
     108 H         0.52112   2.714312   2.313606 H        1 UNL1     0.2098
     109 H         0.208591   3.011551   -0.255127 H        1 UNL1     0.0234
     110 H         -0.854067   2.144211   -1.408939 H        1 UNL1     0.0234
     111 H         -1.149648   3.803975   -1.025975 H        1 UNL1     0.0234
     112 H         -2.604942   -3.175479   1.113824 H        1 UNL1     0.0342
     113 H         -2.702158   -1.676055   2.104033 H        1 UNL1     0.0342
     114 H         -3.891598   -1.98832   0.836873 H        1 UNL1     0.0342
     115 H         -2.597147   -0.041351   3.658425 H        1 UNL1     0.0234
     116 H         -1.072654   0.223987   4.510658 H        1 UNL1     0.0234
     117 H         -2.04039   1.555241   3.843652 H        1 UNL1     0.0234
     118 H         -1.325362   7.233269   0.844393 H        1 UNL1     0.0309
     119 H         -0.272731   7.986473   -0.393635 H        1 UNL1     0.0309
     120 H         -0.485419   6.252094   -0.299549 H        1 UNL1     0.0309
     121 H         -1.709231   4.799959   4.090003 H        1 UNL1     0.0524
     122 H         -3.327046   4.13708   3.825196 H        1 UNL1     0.0524
     123 H         -2.255635   3.389039   5.036087 H        1 UNL1     0.0524
@<TRIPOS>BOND
     1     1     2    1
     2     1    42    1
     3     2     3    2
     4     3     4    1
     5     4     5    2
     6     5     7    1
     7     6    75    1
     8     6    76    1
     9     6    77    1
    10     7     9   am
    11     9    10    1
    12    10    11    2
    13    10    43    1
    14    11    14    1
    15    11    15    1
    16    12    13   ar
    17    12    27   ar
    18    12    43    1
    19    13    14    1
    20    13    30   ar
    21    14    17    2
    22    15    16    1
    23    16    17    1
    24    16    18    1
    25    16    22    1
    26    18    19    1
    27    19    20    1
    28    20    21    1
    29    21    22    1
    30    23    24    1
    31    23    88    1
    32    23    89    1
    33    24    25    1
    34    24    26    1
    35    24    90    1
    36    25    91    1
    37    25    92    1
    38    25    93    1
    39    26    94    1
    40    26    95    1
    41    26    96    1
    42    27    28   ar
    43    28    29   ar
    44    29    30   ar
    45    29    31    1
    46    30    33    1
    47    31    32    1
    48    32    33    1
    49    32    35    1
    50    34    97    1
    51    34    98    1
    52    34    99    1
    53    35    61    1
    54    36    37    1
    55    36    60    1
    56    37    38    1
    57    38    39    1
    58    39    40    1
    59    40    41    1
    60    41    42    1
    61    45   100    1
    62    47   101    1
    63    47   102    1
    64    47   103    1
    65    48   104    1
    66    49   105    1
    67    49   106    1
    68    49   107    1
    69    50   108    1
    70    51    59    1
    71    52   109    1
    72    52   110    1
    73    52   111    1
    74    53    54    1
    75    54    55    2
    76    54    56    1
    77    56   112    1
    78    56   113    1
    79    56   114    1
    80    57   115    1
    81    57   116    1
    82    57   117    1
    83    58   118    1
    84    58   119    1
    85    58   120    1
    86    59   121    1
    87    59   122    1
    88    59   123    1
    89    60    61    2
    90     1    47    1
    91     1    62    1
    92     2    63    1
    93     3    64    1
    94     4    65    1
    95     5     6    1
    96     7     8    2
    97     9    78    1
    98    15    79    1
    99    18    80    1
   100    18    81    1
   101    19    82    1
   102    19    83    1
   103    20    23    1
   104    21    84    1
   105    21    85    1
   106    22    86    1
   107    22    87    1
   108    27    45    1
   109    28    34    1
   110    32    58    1
   111    33    46    2
   112    36    51    1
   113    36    66    1
   114    37    52    1
   115    37    67    1
   116    38    53    1
   117    38    68    1
   118    42    48    1
   119    42    72    1
   120    43    44    2
   121    60    73    1
   122    61    74    1
   123    39    69    1
   124    39    57    1
   125    40    70    1
   126    40    50    1
   127    41    71    1
   128    41    49    1
