@<TRIPOS>MOLECULE
*****
 123 128 0 0 0
SMALL
GASTEIGER

@<TRIPOS>ATOM
     1 C         0.508628   0.157898   -4.161977 C.3        1 UNL1     0.0009
     2 C         -0.158823   -1.025688   -5.423196 C.2        1 UNL1     -0.0787
     3 C         0.040527   -2.12725   -6.341274 C.2        1 UNL1     -0.0649
     4 C         -1.127652   -2.947445   -7.251767 C.2        1 UNL1     -0.0542
     5 C         -1.421992   -4.138585   -7.960022 C.2        1 UNL1     0.0115
     6 C         -0.808353   -5.449912   -8.52322 C.3        1 UNL1     -0.0348
     7 C         -2.954236   -4.491681   -8.283349 C.2        1 UNL1     0.2441
     8 O         -3.458028   -4.321869   -9.385113 O.2        1 UNL1     -0.2702
     9 N         -3.605283   -5.249645   -7.294521 N.am        1 UNL1     -0.2772
     10 C         -4.165788   -4.423492   -6.347618 C.2        1 UNL1     0.1049
     11 C         -3.356569   -3.996867   -5.395054 C.2        1 UNL1     0.0801
     12 C         -5.60446   -2.393705   -6.087764 C.ar        1 UNL1     0.0753
     13 C         -4.589765   -1.882145   -5.217529 C.ar        1 UNL1     0.0305
     14 C         -3.495182   -2.724284   -4.740307 C.2        1 UNL1     0.0924
     15 N         -2.116224   -4.400233   -5.070448 N.pl3        1 UNL1     -0.3170
     16 C         -1.743501   -3.735942   -3.849773 C.3        1 UNL1     0.1275
     17 N         -2.534254   -2.450535   -3.862466 N.2        1 UNL1     -0.2557
     18 C         -2.300389   -4.564343   -2.695941 C.3        1 UNL1     0.0016
     19 C         -1.777628   -5.986495   -2.821617 C.3        1 UNL1     0.0026
     20 N         -0.321976   -5.954397   -2.788829 N.3        1 UNL1     -0.3018
     21 C         0.305235   -5.13112   -3.824778 C.3        1 UNL1     0.0026
     22 C         -0.230623   -3.706019   -3.676997 C.3        1 UNL1     0.0016
     23 C         0.266917   -7.265337   -2.600985 C.3        1 UNL1     0.0012
     24 C         0.007395   -7.772909   -1.173829 C.3        1 UNL1     -0.0339
     25 C         1.182302   -8.61835   -0.655294 C.3        1 UNL1     -0.0615
     26 C         -0.289922   -6.603626   -0.251246 C.3        1 UNL1     -0.0615
     27 C         -6.708623   -1.621682   -6.44121 C.ar        1 UNL1     0.1347
     28 C         -6.926391   -0.343884   -5.957618 C.ar        1 UNL1     0.0342
     29 C         -5.889955   0.157064   -5.14152 C.ar        1 UNL1     0.1435
     30 C         -4.760486   -0.591507   -4.808111 C.ar        1 UNL1     0.0774
     31 O         -6.004911   1.343072   -4.504985 O.3        1 UNL1     -0.4436
     32 C         -5.031837   1.284866   -3.45113 C.3        1 UNL1     0.3143
     33 C         -4.011772   0.262482   -3.909837 C.2        1 UNL1     0.2504
     34 C         -8.200223   0.443556   -6.089482 C.3        1 UNL1     -0.0327
     35 O         -4.36517   2.552778   -3.416403 O.2        1 UNL1     -0.4528
     36 C         -3.336155   3.088807   0.197721 C.3        1 UNL1     0.0854
     37 C         -2.438068   2.180713   1.123101 C.3        1 UNL1     0.0236
     38 C         -1.177984   2.923275   1.780774 C.3        1 UNL1     0.1131
     39 C         -0.193496   3.75812   0.866395 C.3        1 UNL1     0.0200
     40 C         0.309947   3.154065   -0.604693 C.3        1 UNL1     0.0661
     41 C         0.94634   1.605497   -0.877736 C.3        1 UNL1     0.0091
     42 C         0.827674   0.512028   -2.345948 C.3        1 UNL1     0.0661
     43 C         -5.487553   -3.805427   -6.53007 C.2        1 UNL1     0.2131
     44 O         -6.430572   -4.467798   -6.923411 O.2        1 UNL1     -0.2851
     45 O         -7.627112   -2.177947   -7.32912 O.3        1 UNL1     -0.5056
     46 O         -2.839579   0.183878   -3.617195 O.2        1 UNL1     -0.2836
     47 C         1.361309   1.256649   -4.851659 C.3        1 UNL1     -0.0566
     48 O         2.276036   0.194438   -2.368302 O.3        1 UNL1     -0.3909
     49 C         0.674681   0.745244   0.336209 C.3        1 UNL1     -0.0577
     50 O         -0.611853   3.484248   -1.623999 O.3        1 UNL1     -0.3910
     51 O         -2.833019   4.376848   -0.076569 O.3        1 UNL1     -0.3753
     52 C         -2.353468   0.712521   0.591871 C.3        1 UNL1     -0.0564
     53 O         -0.553306   2.158992   2.91125 O.3        1 UNL1     -0.4608
     54 C         0.789002   2.089936   3.178399 C.2        1 UNL1     0.3042
     55 O         1.555348   1.162871   2.919354 O.2        1 UNL1     -0.2512
     56 C         1.341675   3.336561   3.80863 C.3        1 UNL1     0.0332
     57 C         -0.661344   5.286517   0.92379 C.3        1 UNL1     -0.0567
     58 C         -5.766629   0.733079   -2.207289 C.3        1 UNL1     0.0210
     59 C         -3.5203   5.441124   0.579804 C.3        1 UNL1     0.0372
     60 C         -3.703384   2.483649   -1.111511 C.2        1 UNL1     -0.0208
     61 C         -3.699506   3.008146   -2.337737 C.2        1 UNL1     0.0882
     62 H         -0.500077   0.572044   -4.04489 H        1 UNL1     0.0365
     63 H         -1.183792   -0.661992   -5.521344 H        1 UNL1     0.0576
     64 H         0.995253   -2.65414   -6.404455 H        1 UNL1     0.0615
     65 H         -2.008422   -2.302828   -7.186997 H        1 UNL1     0.0622
     66 H         -4.278317   3.201635   0.75238 H        1 UNL1     0.0645
     67 H         -3.069439   1.993475   2.009031 H        1 UNL1     0.0362
     68 H         -1.70442   3.667221   2.39797 H        1 UNL1     0.0741
     69 H         0.738965   3.898721   1.396637 H        1 UNL1     0.0359
     70 H         1.179158   3.812658   -0.793873 H        1 UNL1     0.0600
     71 H         2.026982   1.816529   -0.75676 H        1 UNL1     0.0348
     72 H         0.591189   1.5251   -2.702425 H        1 UNL1     0.0602
     73 H         -4.125544   1.523569   -0.946358 H        1 UNL1     0.0628
     74 H         -3.234809   3.959154   -2.600184 H        1 UNL1     0.1022
     75 H         0.136063   -5.233856   -9.078586 H        1 UNL1     0.0279
     76 H         -0.486508   -6.188058   -7.792039 H        1 UNL1     0.0279
     77 H         -1.425319   -5.90329   -9.312841 H        1 UNL1     0.0279
     78 H         -2.929838   -5.845307   -6.820139 H        1 UNL1     0.1553
     79 H         -1.72547   -5.280726   -5.351476 H        1 UNL1     0.1484
     80 H         -1.993993   -4.107366   -1.747226 H        1 UNL1     0.0317
     81 H         -3.39563   -4.562179   -2.705601 H        1 UNL1     0.0317
     82 H         -2.14225   -6.474861   -3.737292 H        1 UNL1     0.0428
     83 H         -2.188288   -6.56023   -1.99021 H        1 UNL1     0.0428
     84 H         1.393185   -5.059809   -3.729441 H        1 UNL1     0.0428
     85 H         0.152322   -5.55077   -4.828685 H        1 UNL1     0.0428
     86 H         0.345109   -3.108036   -4.35886 H        1 UNL1     0.0317
     87 H         0.041933   -3.303281   -2.693833 H        1 UNL1     0.0317
     88 H         -0.206827   -7.957274   -3.309564 H        1 UNL1     0.0429
     89 H         1.340549   -7.256589   -2.829043 H        1 UNL1     0.0429
     90 H         -0.896711   -8.393235   -1.172077 H        1 UNL1     0.0308
     91 H         2.141748   -8.134037   -0.860249 H        1 UNL1     0.0233
     92 H         1.089721   -8.790244   0.419643 H        1 UNL1     0.0233
     93 H         1.22071   -9.610366   -1.12141 H        1 UNL1     0.0233
     94 H         -0.093778   -6.884134   0.789272 H        1 UNL1     0.0233
     95 H         0.356857   -5.757592   -0.499976 H        1 UNL1     0.0233
     96 H         -1.333278   -6.286253   -0.332792 H        1 UNL1     0.0233
     97 H         -8.609199   0.721751   -5.122747 H        1 UNL1     0.0280
     98 H         -8.050418   1.3847   -6.634518 H        1 UNL1     0.0280
     99 H         -8.953317   -0.159439   -6.622719 H        1 UNL1     0.0280
     100 H         -8.308444   -2.683551   -6.921966 H        1 UNL1     0.2922
     101 H         0.799026   2.189467   -4.888314 H        1 UNL1     0.0236
     102 H         1.727799   0.961143   -5.834178 H        1 UNL1     0.0236
     103 H         2.269093   1.499569   -4.274501 H        1 UNL1     0.0236
     104 H         2.6759   0.584321   -1.566386 H        1 UNL1     0.2098
     105 H         1.552076   0.243546   0.736568 H        1 UNL1     0.0234
     106 H         0.127802   1.245244   1.135489 H        1 UNL1     0.0234
     107 H         -0.0   0.0   0.0 H        1 UNL1     0.0234
     108 H         -1.180656   4.199762   -1.280093 H        1 UNL1     0.2098
     109 H         -3.338825   0.227673   0.550565 H        1 UNL1     0.0234
     110 H         -1.866203   0.636088   -0.386124 H        1 UNL1     0.0234
     111 H         -1.73829   0.080284   1.245919 H        1 UNL1     0.0234
     112 H         2.417163   3.223723   3.975778 H        1 UNL1     0.0342
     113 H         1.129604   4.22434   3.214728 H        1 UNL1     0.0342
     114 H         0.860697   3.468301   4.787644 H        1 UNL1     0.0342
     115 H         -1.131551   5.533853   1.885517 H        1 UNL1     0.0234
     116 H         0.144746   6.004054   0.758236 H        1 UNL1     0.0234
     117 H         -1.477928   5.523338   0.220192 H        1 UNL1     0.0234
     118 H         -5.891437   1.501708   -1.424577 H        1 UNL1     0.0309
     119 H         -6.743838   0.29966   -2.44269 H        1 UNL1     0.0309
     120 H         -5.199831   -0.054882   -1.699387 H        1 UNL1     0.0309
     121 H         -3.384104   6.340804   -0.019681 H        1 UNL1     0.0524
     122 H         -4.604399   5.254461   0.656777 H        1 UNL1     0.0524
     123 H         -3.11658   5.590608   1.57718 H        1 UNL1     0.0524
@<TRIPOS>BOND
     1     1     2    1
     2     1    42    1
     3     2     3    2
     4     3     4    1
     5     4     5    2
     6     5     7    1
     7     6    75    1
     8     6    76    1
     9     6    77    1
    10     7     9   am
    11     9    10    1
    12    10    11    2
    13    10    43    1
    14    11    14    1
    15    11    15    1
    16    12    13   ar
    17    12    27   ar
    18    12    43    1
    19    13    14    1
    20    13    30   ar
    21    14    17    2
    22    15    16    1
    23    16    17    1
    24    16    18    1
    25    16    22    1
    26    18    19    1
    27    19    20    1
    28    20    21    1
    29    21    22    1
    30    23    24    1
    31    23    88    1
    32    23    89    1
    33    24    25    1
    34    24    26    1
    35    24    90    1
    36    25    91    1
    37    25    92    1
    38    25    93    1
    39    26    94    1
    40    26    95    1
    41    26    96    1
    42    27    28   ar
    43    28    29   ar
    44    29    30   ar
    45    29    31    1
    46    30    33    1
    47    31    32    1
    48    32    33    1
    49    32    35    1
    50    34    97    1
    51    34    98    1
    52    34    99    1
    53    35    61    1
    54    36    37    1
    55    36    60    1
    56    37    38    1
    57    38    39    1
    58    39    40    1
    59    40    41    1
    60    41    42    1
    61    45   100    1
    62    47   101    1
    63    47   102    1
    64    47   103    1
    65    48   104    1
    66    49   105    1
    67    49   106    1
    68    49   107    1
    69    50   108    1
    70    51    59    1
    71    52   109    1
    72    52   110    1
    73    52   111    1
    74    53    54    1
    75    54    55    2
    76    54    56    1
    77    56   112    1
    78    56   113    1
    79    56   114    1
    80    57   115    1
    81    57   116    1
    82    57   117    1
    83    58   118    1
    84    58   119    1
    85    58   120    1
    86    59   121    1
    87    59   122    1
    88    59   123    1
    89    60    61    2
    90     1    47    1
    91     1    62    1
    92     2    63    1
    93     3    64    1
    94     4    65    1
    95     5     6    1
    96     7     8    2
    97     9    78    1
    98    15    79    1
    99    18    80    1
   100    18    81    1
   101    19    82    1
   102    19    83    1
   103    20    23    1
   104    21    84    1
   105    21    85    1
   106    22    86    1
   107    22    87    1
   108    27    45    1
   109    28    34    1
   110    32    58    1
   111    33    46    2
   112    36    51    1
   113    36    66    1
   114    37    52    1
   115    37    67    1
   116    38    53    1
   117    38    68    1
   118    42    48    1
   119    42    72    1
   120    43    44    2
   121    60    73    1
   122    61    74    1
   123    39    69    1
   124    39    57    1
   125    40    70    1
   126    40    50    1
   127    41    71    1
   128    41    49    1
