@<TRIPOS>MOLECULE
*****
 123 128 0 0 0
SMALL
GASTEIGER

@<TRIPOS>ATOM
     1 C         -0.162653   4.040995   -1.254523 C.3        1 UNL1     0.0009
     2 C         -1.580973   4.916616   -2.066122 C.2        1 UNL1     -0.0787
     3 C         -2.197597   5.482046   -3.247693 C.2        1 UNL1     -0.0649
     4 C         -3.755216   6.127568   -3.400931 C.2        1 UNL1     -0.0542
     5 C         -4.786198   6.468982   -4.310651 C.2        1 UNL1     0.0115
     6 C         -5.129838   6.632304   -5.816825 C.3        1 UNL1     -0.0348
     7 C         -6.275126   6.686547   -3.751411 C.2        1 UNL1     0.2441
     8 O         -6.765751   7.793726   -3.578297 O.2        1 UNL1     -0.2702
     9 N         -7.068307   5.526332   -3.721166 N.am        1 UNL1     -0.2772
     10 C         -6.894642   4.856786   -2.531683 C.2        1 UNL1     0.1049
     11 C         -5.843221   4.060801   -2.459948 C.2        1 UNL1     0.0801
     12 C         -6.857319   5.193163   -0.053217 C.ar        1 UNL1     0.0753
     13 C         -5.605523   4.499188   -0.056689 C.ar        1 UNL1     0.0305
     14 C         -5.123688   3.796166   -1.243553 C.2        1 UNL1     0.0924
     15 N         -5.019497   3.628213   -3.429934 N.pl3        1 UNL1     -0.3170
     16 C         -4.140675   2.645191   -2.854092 C.3        1 UNL1     0.1275
     17 N         -4.049202   3.027485   -1.396969 N.2        1 UNL1     -0.2557
     18 C         -4.870891   1.306249   -2.89558 C.3        1 UNL1     0.0016
     19 C         -5.27887   1.019093   -4.331785 C.3        1 UNL1     0.0026
     20 N         -4.081965   0.989067   -5.160969 N.3        1 UNL1     -0.3018
     21 C         -3.278604   2.213173   -5.137654 C.3        1 UNL1     0.0026
     22 C         -2.87587   2.480049   -3.686283 C.3        1 UNL1     0.0016
     23 C         -4.321863   0.432677   -6.477602 C.3        1 UNL1     0.0012
     24 C         -4.585037   -1.078523   -6.383951 C.3        1 UNL1     -0.0339
     25 C         -4.033546   -1.822515   -7.611302 C.3        1 UNL1     -0.0615
     26 C         -4.008127   -1.628472   -5.091082 C.3        1 UNL1     -0.0615
     27 C         -7.366395   5.757622   1.113979 C.ar        1 UNL1     0.1347
     28 C         -6.735834   5.658962   2.341459 C.ar        1 UNL1     0.0342
     29 C         -5.481448   5.013746   2.304344 C.ar        1 UNL1     0.1435
     30 C         -4.941934   4.475036   1.135612 C.ar        1 UNL1     0.0774
     31 O         -4.795071   4.741797   3.435687 O.3        1 UNL1     -0.4436
     32 C         -3.870615   3.709824   3.059808 C.3        1 UNL1     0.3143
     33 C         -3.705197   3.853077   1.560365 C.2        1 UNL1     0.2504
     34 C         -7.336471   6.016302   3.67249 C.3        1 UNL1     -0.0327
     35 O         -2.606607   4.033937   3.651827 O.2        1 UNL1     -0.4528
     36 C         -0.878271   0.716534   4.29664 C.3        1 UNL1     0.0854
     37 C         -0.518642   -0.433827   3.279359 C.3        1 UNL1     0.0236
     38 C         1.027348   -0.859582   3.259511 C.3        1 UNL1     0.1131
     39 C         2.145239   0.24938   3.108549 C.3        1 UNL1     0.0200
     40 C         1.965698   1.484944   2.002391 C.3        1 UNL1     0.0661
     41 C         1.553197   1.302464   0.367107 C.3        1 UNL1     0.0091
     42 C         0.594413   2.399251   -0.74788 C.3        1 UNL1     0.0661
     43 C         -7.638539   5.214657   -1.314761 C.2        1 UNL1     0.2131
     44 O         -8.839919   5.408165   -1.359241 O.2        1 UNL1     -0.2851
     45 O         -8.568975   6.455304   1.021896 O.3        1 UNL1     -0.5056
     46 O         -2.756991   3.543944   0.873928 O.2        1 UNL1     -0.2836
     47 C         1.036005   5.010389   -1.071561 C.3        1 UNL1     -0.0566
     48 O         1.577536   2.322575   -1.855447 O.3        1 UNL1     -0.3909
     49 C         1.044648   -0.104685   0.146188 C.3        1 UNL1     -0.0577
     50 O         1.242901   2.560952   2.565858 O.3        1 UNL1     -0.3910
     51 O         0.214574   1.343474   4.929147 O.3        1 UNL1     -0.3753
     52 C         -1.372632   -0.342995   1.972684 C.3        1 UNL1     -0.0564
     53 O         1.282098   -2.164159   2.562727 O.3        1 UNL1     -0.4608
     54 C         2.368657   -2.447039   1.777043 C.2        1 UNL1     0.3042
     55 O         2.412945   -2.481246   0.547935 O.2        1 UNL1     -0.2512
     56 C         3.63118   -2.678653   2.557495 C.3        1 UNL1     0.0332
     57 C         2.646666   0.631946   4.578375 C.3        1 UNL1     -0.0567
     58 C         -4.572137   2.364289   3.358025 C.3        1 UNL1     0.0210
     59 C         0.373698   1.020894   6.309904 C.3        1 UNL1     0.0372
     60 C         -1.733598   1.801252   3.742596 C.2        1 UNL1     -0.0208
     61 C         -1.633819   3.126015   3.860029 C.2        1 UNL1     0.0882
     62 H         -0.720933   4.05201   -0.310641 H        1 UNL1     0.0365
     63 H         -2.216433   5.119682   -1.201585 H        1 UNL1     0.0576
     64 H         -1.73807   5.387547   -4.234108 H        1 UNL1     0.0615
     65 H         -4.08793   6.253666   -2.367063 H        1 UNL1     0.0622
     66 H         -1.482319   0.221958   5.070311 H        1 UNL1     0.0645
     67 H         -0.988354   -1.333035   3.714508 H        1 UNL1     0.0362
     68 H         1.127525   -1.236651   4.288737 H        1 UNL1     0.0741
     69 H         3.063926   -0.223842   2.788417 H        1 UNL1     0.0359
     70 H         3.009675   1.849162   1.952222 H        1 UNL1     0.0600
     71 H         2.564085   1.24083   -0.081517 H        1 UNL1     0.0348
     72 H         0.921256   3.030627   0.09108 H        1 UNL1     0.0602
     73 H         -2.592633   1.371866   3.289898 H        1 UNL1     0.0628
     74 H         -0.761652   3.645861   4.257929 H        1 UNL1     0.1022
     75 H         -4.33708   7.221173   -6.338172 H        1 UNL1     0.0279
     76 H         -5.169952   5.719545   -6.407021 H        1 UNL1     0.0279
     77 H         -6.014726   7.263454   -5.98512 H        1 UNL1     0.0279
     78 H         -6.784615   4.898426   -4.470386 H        1 UNL1     0.1553
     79 H         -5.251414   3.644877   -4.406085 H        1 UNL1     0.1484
     80 H         -4.208122   0.525266   -2.503702 H        1 UNL1     0.0317
     81 H         -5.754018   1.321944   -2.247898 H        1 UNL1     0.0317
     82 H         -6.000986   1.759779   -4.705745 H        1 UNL1     0.0428
     83 H         -5.799421   0.060952   -4.338235 H        1 UNL1     0.0428
     84 H         -2.345488   2.136304   -5.704397 H        1 UNL1     0.0428
     85 H         -3.805513   3.056875   -5.6044 H        1 UNL1     0.0428
     86 H         -2.183897   3.300862   -3.724058 H        1 UNL1     0.0317
     87 H         -2.265554   1.650781   -3.308226 H        1 UNL1     0.0317
     88 H         -5.213641   0.917464   -6.895941 H        1 UNL1     0.0429
     89 H         -3.489028   0.648082   -7.159335 H        1 UNL1     0.0429
     90 H         -5.666192   -1.251992   -6.327165 H        1 UNL1     0.0308
     91 H         -3.018531   -1.493267   -7.853052 H        1 UNL1     0.0233
     92 H         -4.029195   -2.901401   -7.439276 H        1 UNL1     0.0233
     93 H         -4.643299   -1.658299   -8.508002 H        1 UNL1     0.0233
     94 H         -3.838479   -2.706819   -5.181774 H        1 UNL1     0.0233
     95 H         -3.046637   -1.152628   -4.87878 H        1 UNL1     0.0233
     96 H         -4.682018   -1.45441   -4.247552 H        1 UNL1     0.0233
     97 H         -7.34777   5.1713   4.354455 H        1 UNL1     0.0280
     98 H         -6.770951   6.80685   4.18286 H        1 UNL1     0.0280
     99 H         -8.37446   6.358498   3.529047 H        1 UNL1     0.0280
     100 H         -8.603078   7.086413   0.324643 H        1 UNL1     0.2922
     101 H         1.107196   5.314065   -0.027353 H        1 UNL1     0.0236
     102 H         1.001843   5.86617   -1.744951 H        1 UNL1     0.0236
     103 H         2.000695   4.521451   -1.287214 H        1 UNL1     0.0236
     104 H         2.25326   1.662588   -1.604875 H        1 UNL1     0.2098
     105 H         1.45555   -0.598186   -0.730983 H        1 UNL1     0.0234
     106 H         1.118262   -0.757295   1.01602 H        1 UNL1     0.0234
     107 H         -0.0   0.0   0.0 H        1 UNL1     0.0234
     108 H         1.197893   3.265274   1.890822 H        1 UNL1     0.2098
     109 H         -2.449319   -0.436188   2.172109 H        1 UNL1     0.0234
     110 H         -1.184134   0.570173   1.397935 H        1 UNL1     0.0234
     111 H         -1.128776   -1.153222   1.272675 H        1 UNL1     0.0234
     112 H         4.460922   -2.877749   1.872488 H        1 UNL1     0.0342
     113 H         3.862253   -1.845308   3.219298 H        1 UNL1     0.0342
     114 H         3.489201   -3.570842   3.182799 H        1 UNL1     0.0342
     115 H         3.717188   0.878822   4.593326 H        1 UNL1     0.0234
     116 H         2.109987   1.470655   5.02625 H        1 UNL1     0.0234
     117 H         2.612726   -0.212255   5.288385 H        1 UNL1     0.0234
     118 H         -4.106998   1.833448   4.20706 H        1 UNL1     0.0309
     119 H         -5.644922   2.471753   3.547197 H        1 UNL1     0.0309
     120 H         -4.479849   1.650085   2.532494 H        1 UNL1     0.0309
     121 H         0.896497   1.85096   6.784274 H        1 UNL1     0.0524
     122 H         -0.593577   0.899728   6.825398 H        1 UNL1     0.0524
     123 H         0.948063   0.105211   6.418176 H        1 UNL1     0.0524
@<TRIPOS>BOND
     1     1     2    1
     2     1    42    1
     3     2     3    2
     4     3     4    1
     5     4     5    2
     6     5     7    1
     7     6    75    1
     8     6    76    1
     9     6    77    1
    10     7     9   am
    11     9    10    1
    12    10    11    2
    13    10    43    1
    14    11    14    1
    15    11    15    1
    16    12    13   ar
    17    12    27   ar
    18    12    43    1
    19    13    14    1
    20    13    30   ar
    21    14    17    2
    22    15    16    1
    23    16    17    1
    24    16    18    1
    25    16    22    1
    26    18    19    1
    27    19    20    1
    28    20    21    1
    29    21    22    1
    30    23    24    1
    31    23    88    1
    32    23    89    1
    33    24    25    1
    34    24    26    1
    35    24    90    1
    36    25    91    1
    37    25    92    1
    38    25    93    1
    39    26    94    1
    40    26    95    1
    41    26    96    1
    42    27    28   ar
    43    28    29   ar
    44    29    30   ar
    45    29    31    1
    46    30    33    1
    47    31    32    1
    48    32    33    1
    49    32    35    1
    50    34    97    1
    51    34    98    1
    52    34    99    1
    53    35    61    1
    54    36    37    1
    55    36    60    1
    56    37    38    1
    57    38    39    1
    58    39    40    1
    59    40    41    1
    60    41    42    1
    61    45   100    1
    62    47   101    1
    63    47   102    1
    64    47   103    1
    65    48   104    1
    66    49   105    1
    67    49   106    1
    68    49   107    1
    69    50   108    1
    70    51    59    1
    71    52   109    1
    72    52   110    1
    73    52   111    1
    74    53    54    1
    75    54    55    2
    76    54    56    1
    77    56   112    1
    78    56   113    1
    79    56   114    1
    80    57   115    1
    81    57   116    1
    82    57   117    1
    83    58   118    1
    84    58   119    1
    85    58   120    1
    86    59   121    1
    87    59   122    1
    88    59   123    1
    89    60    61    2
    90     1    47    1
    91     1    62    1
    92     2    63    1
    93     3    64    1
    94     4    65    1
    95     5     6    1
    96     7     8    2
    97     9    78    1
    98    15    79    1
    99    18    80    1
   100    18    81    1
   101    19    82    1
   102    19    83    1
   103    20    23    1
   104    21    84    1
   105    21    85    1
   106    22    86    1
   107    22    87    1
   108    27    45    1
   109    28    34    1
   110    32    58    1
   111    33    46    2
   112    36    51    1
   113    36    66    1
   114    37    52    1
   115    37    67    1
   116    38    53    1
   117    38    68    1
   118    42    48    1
   119    42    72    1
   120    43    44    2
   121    60    73    1
   122    61    74    1
   123    39    69    1
   124    39    57    1
   125    40    70    1
   126    40    50    1
   127    41    71    1
   128    41    49    1
