@<TRIPOS>MOLECULE
*****
 123 128 0 0 0
SMALL
GASTEIGER

@<TRIPOS>ATOM
     1 C         5.036516   2.056589   0.644747 C.3        1 UNL1     0.0009
     2 C         6.422351   2.998175   -0.148924 C.2        1 UNL1     -0.0787
     3 C         7.71785   3.02007   -0.794873 C.2        1 UNL1     -0.0649
     4 C         8.512915   4.344549   -1.487682 C.2        1 UNL1     -0.0542
     5 C         9.522536   4.747343   -2.396252 C.2        1 UNL1     0.0115
     6 C         10.706754   4.240298   -3.264502 C.3        1 UNL1     -0.0348
     7 C         9.517143   6.256022   -2.944746 C.2        1 UNL1     0.2441
     8 O         10.272296   7.12053   -2.521784 O.2        1 UNL1     -0.2702
     9 N         8.771377   6.452769   -4.120022 N.am        1 UNL1     -0.2772
     10 C         7.459025   6.731978   -3.814906 C.2        1 UNL1     0.1049
     11 C         6.683024   5.690622   -3.574864 C.2        1 UNL1     0.0801
     12 C         6.024405   8.183225   -2.368156 C.ar        1 UNL1     0.0753
     13 C         5.344108   6.986218   -1.97703 C.ar        1 UNL1     0.0305
     14 C         5.566881   5.718632   -2.668874 C.2        1 UNL1     0.0924
     15 N         6.905874   4.381376   -3.781605 N.pl3        1 UNL1     -0.3170
     16 C         5.67917   3.679054   -3.512915 C.3        1 UNL1     0.1275
     17 N         4.959267   4.546342   -2.509284 N.2        1 UNL1     -0.2557
     18 C         4.843395   3.724505   -4.788499 C.3        1 UNL1     0.0016
     19 C         5.663646   3.141877   -5.928377 C.3        1 UNL1     0.0026
     20 N         6.02903   1.773328   -5.589855 N.3        1 UNL1     -0.3018
     21 C         6.783421   1.621292   -4.344003 C.3        1 UNL1     0.0026
     22 C         5.939013   2.208874   -3.211918 C.3        1 UNL1     0.0016
     23 C         6.549513   1.03225   -6.721467 C.3        1 UNL1     0.0012
     24 C         5.430561   0.73712   -7.732705 C.3        1 UNL1     -0.0339
     25 C         5.636534   1.515672   -9.042472 C.3        1 UNL1     -0.0615
     26 C         5.333708   -0.758194   -7.980567 C.3        1 UNL1     -0.0615
     27 C         5.718552   9.410616   -1.784989 C.ar        1 UNL1     0.1347
     28 C         4.727869   9.571718   -0.832812 C.ar        1 UNL1     0.0342
     29 C         4.105192   8.371909   -0.42797 C.ar        1 UNL1     0.1435
     30 C         4.42633   7.12999   -0.977266 C.ar        1 UNL1     0.0774
     31 O         3.045935   8.375701   0.410462 O.3        1 UNL1     -0.4436
     32 C         2.419531   7.099779   0.209178 C.3        1 UNL1     0.3143
     33 C         3.511319   6.204974   -0.341762 C.2        1 UNL1     0.2504
     34 C         4.174746   10.883283   -0.349125 C.3        1 UNL1     -0.0327
     35 O         2.07239   6.587075   1.501416 O.2        1 UNL1     -0.4528
     36 C         -1.012709   4.439383   0.974469 C.3        1 UNL1     0.0854
     37 C         -1.210519   3.195603   0.025044 C.3        1 UNL1     0.0236
     38 C         -1.728048   1.864326   0.75416 C.3        1 UNL1     0.1131
     39 C         -0.984699   1.337871   2.04743 C.3        1 UNL1     0.0200
     40 C         0.681899   1.312912   2.112745 C.3        1 UNL1     0.0661
     41 C         1.712914   0.662366   0.933165 C.3        1 UNL1     0.0091
     42 C         3.397335   1.170647   0.413764 C.3        1 UNL1     0.0661
     43 C         7.003943   8.089334   -3.478989 C.2        1 UNL1     0.2131
     44 O         7.347142   9.041499   -4.155993 O.2        1 UNL1     -0.2851
     45 O         6.458927   10.519454   -2.189664 O.3        1 UNL1     -0.5056
     46 O         3.614213   5.001677   -0.256062 O.2        1 UNL1     -0.2836
     47 C         5.441857   1.601809   2.072632 C.3        1 UNL1     -0.0566
     48 O         3.947644   -0.205918   0.450434 O.3        1 UNL1     -0.3909
     49 C         0.916926   0.417593   -0.329366 C.3        1 UNL1     -0.0577
     50 O         1.18451   2.555304   2.56171 O.3        1 UNL1     -0.3910
     51 O         -1.14335   4.187275   2.35534 O.3        1 UNL1     -0.3753
     52 C         -0.139855   3.156915   -1.113872 C.3        1 UNL1     -0.0564
     53 O         -2.238649   0.819697   -0.194714 O.3        1 UNL1     -0.4608
     54 C         -2.378062   -0.513427   0.090373 C.2        1 UNL1     0.3042
     55 O         -1.637991   -1.43287   -0.257129 O.2        1 UNL1     -0.2512
     56 C         -3.552801   -0.819549   0.97524 C.3        1 UNL1     0.0332
     57 C         -1.772059   1.902805   3.319864 C.3        1 UNL1     -0.0567
     58 C         1.345587   7.30734   -0.884025 C.3        1 UNL1     0.0210
     59 C         -2.33159   4.707417   2.949818 C.3        1 UNL1     0.0372
     60 C         0.269496   5.172597   0.791419 C.2        1 UNL1     -0.0208
     61 C         1.13461   5.639468   1.692726 C.2        1 UNL1     0.0882
     62 H         4.487931   2.999128   0.760442 H        1 UNL1     0.0365
     63 H         6.077427   4.02476   -0.00885 H        1 UNL1     0.0576
     64 H         8.248953   2.098647   -1.043906 H        1 UNL1     0.0615
     65 H         7.954379   5.20766   -1.115446 H        1 UNL1     0.0622
     66 H         -1.805729   5.140834   0.679288 H        1 UNL1     0.0645
     67 H         -2.087272   3.464223   -0.589536 H        1 UNL1     0.0362
     68 H         -2.709984   2.21668   1.105115 H        1 UNL1     0.0741
     69 H         -1.243518   0.298387   2.198741 H        1 UNL1     0.0359
     70 H         0.828896   0.628851   2.970365 H        1 UNL1     0.0600
     71 H         1.825396   -0.368657   1.322131 H        1 UNL1     0.0348
     72 H         3.240965   1.611407   1.409051 H        1 UNL1     0.0602
     73 H         0.388061   5.41802   -0.234718 H        1 UNL1     0.0628
     74 H         1.1166   5.386736   2.753405 H        1 UNL1     0.1022
     75 H         10.780889   3.127167   -3.214738 H        1 UNL1     0.0279
     76 H         10.636818   4.422817   -4.334486 H        1 UNL1     0.0279
     77 H         11.686355   4.5409   -2.86485 H        1 UNL1     0.0279
     78 H         8.781707   5.601634   -4.678179 H        1 UNL1     0.1553
     79 H         7.610147   4.02754   -4.402679 H        1 UNL1     0.1484
     80 H         3.9182   3.157318   -4.630135 H        1 UNL1     0.0317
     81 H         4.544913   4.751607   -5.024344 H        1 UNL1     0.0317
     82 H         6.556137   3.74914   -6.139575 H        1 UNL1     0.0428
     83 H         5.049599   3.185636   -6.828422 H        1 UNL1     0.0428
     84 H         6.975801   0.578747   -4.072154 H        1 UNL1     0.0428
     85 H         7.784953   2.067536   -4.415521 H        1 UNL1     0.0428
     86 H         6.458817   1.961969   -2.304818 H        1 UNL1     0.0317
     87 H         4.995761   1.656287   -3.122362 H        1 UNL1     0.0317
     88 H         7.311208   1.650948   -7.213735 H        1 UNL1     0.0429
     89 H         7.045473   0.107804   -6.398672 H        1 UNL1     0.0429
     90 H         4.467599   1.031836   -7.299046 H        1 UNL1     0.0308
     91 H         6.671808   1.444045   -9.389139 H        1 UNL1     0.0233
     92 H         4.970189   1.141421   -9.823196 H        1 UNL1     0.0233
     93 H         5.410658   2.583361   -8.93359 H        1 UNL1     0.0233
     94 H         4.843734   -0.950874   -8.941106 H        1 UNL1     0.0233
     95 H         6.335033   -1.196178   -8.019053 H        1 UNL1     0.0233
     96 H         4.760349   -1.256751   -7.194011 H        1 UNL1     0.0233
     97 H         3.104588   10.960712   -0.516448 H        1 UNL1     0.0280
     98 H         4.320935   11.02126   0.730156 H        1 UNL1     0.0280
     99 H         4.668794   11.711532   -0.882993 H        1 UNL1     0.0280
     100 H         7.39115   10.390766   -2.184795 H        1 UNL1     0.2922
     101 H         4.548205   1.377049   2.65446 H        1 UNL1     0.0236
     102 H         6.092396   2.313033   2.580513 H        1 UNL1     0.0236
     103 H         6.012475   0.658179   2.060352 H        1 UNL1     0.0236
     104 H         4.283593   -0.365288   1.354154 H        1 UNL1     0.2098
     105 H         0.688407   1.315854   -0.897449 H        1 UNL1     0.0234
     106 H         1.327899   -0.349813   -0.985199 H        1 UNL1     0.0234
     107 H         0.0   -0.0   0.0 H        1 UNL1     0.0234
     108 H         1.003862   3.211511   1.861334 H        1 UNL1     0.2098
     109 H         -0.186724   4.045207   -1.759204 H        1 UNL1     0.0234
     110 H         0.881741   3.029082   -0.740049 H        1 UNL1     0.0234
     111 H         -0.288943   2.29705   -1.780468 H        1 UNL1     0.0234
     112 H         -4.085111   -1.697426   0.596658 H        1 UNL1     0.0342
     113 H         -3.25757   -0.959543   2.01403 H        1 UNL1     0.0342
     114 H         -4.242618   0.034788   0.937481 H        1 UNL1     0.0342
     115 H         -2.845793   1.675252   3.269839 H        1 UNL1     0.0234
     116 H         -1.400709   1.526037   4.274953 H        1 UNL1     0.0234
     117 H         -1.790037   3.005014   3.372345 H        1 UNL1     0.0234
     118 H         0.321376   7.230039   -0.479028 H        1 UNL1     0.0309
     119 H         1.450294   8.259443   -1.413872 H        1 UNL1     0.0309
     120 H         1.372547   6.527724   -1.653167 H        1 UNL1     0.0309
     121 H         -2.126349   4.872166   4.007216 H        1 UNL1     0.0524
     122 H         -2.627782   5.676232   2.514266 H        1 UNL1     0.0524
     123 H         -3.150127   4.002964   2.832186 H        1 UNL1     0.0524
@<TRIPOS>BOND
     1     1     2    1
     2     1    42    1
     3     2     3    2
     4     3     4    1
     5     4     5    2
     6     5     7    1
     7     6    75    1
     8     6    76    1
     9     6    77    1
    10     7     9   am
    11     9    10    1
    12    10    11    2
    13    10    43    1
    14    11    14    1
    15    11    15    1
    16    12    13   ar
    17    12    27   ar
    18    12    43    1
    19    13    14    1
    20    13    30   ar
    21    14    17    2
    22    15    16    1
    23    16    17    1
    24    16    18    1
    25    16    22    1
    26    18    19    1
    27    19    20    1
    28    20    21    1
    29    21    22    1
    30    23    24    1
    31    23    88    1
    32    23    89    1
    33    24    25    1
    34    24    26    1
    35    24    90    1
    36    25    91    1
    37    25    92    1
    38    25    93    1
    39    26    94    1
    40    26    95    1
    41    26    96    1
    42    27    28   ar
    43    28    29   ar
    44    29    30   ar
    45    29    31    1
    46    30    33    1
    47    31    32    1
    48    32    33    1
    49    32    35    1
    50    34    97    1
    51    34    98    1
    52    34    99    1
    53    35    61    1
    54    36    37    1
    55    36    60    1
    56    37    38    1
    57    38    39    1
    58    39    40    1
    59    40    41    1
    60    41    42    1
    61    45   100    1
    62    47   101    1
    63    47   102    1
    64    47   103    1
    65    48   104    1
    66    49   105    1
    67    49   106    1
    68    49   107    1
    69    50   108    1
    70    51    59    1
    71    52   109    1
    72    52   110    1
    73    52   111    1
    74    53    54    1
    75    54    55    2
    76    54    56    1
    77    56   112    1
    78    56   113    1
    79    56   114    1
    80    57   115    1
    81    57   116    1
    82    57   117    1
    83    58   118    1
    84    58   119    1
    85    58   120    1
    86    59   121    1
    87    59   122    1
    88    59   123    1
    89    60    61    2
    90     1    47    1
    91     1    62    1
    92     2    63    1
    93     3    64    1
    94     4    65    1
    95     5     6    1
    96     7     8    2
    97     9    78    1
    98    15    79    1
    99    18    80    1
   100    18    81    1
   101    19    82    1
   102    19    83    1
   103    20    23    1
   104    21    84    1
   105    21    85    1
   106    22    86    1
   107    22    87    1
   108    27    45    1
   109    28    34    1
   110    32    58    1
   111    33    46    2
   112    36    51    1
   113    36    66    1
   114    37    52    1
   115    37    67    1
   116    38    53    1
   117    38    68    1
   118    42    48    1
   119    42    72    1
   120    43    44    2
   121    60    73    1
   122    61    74    1
   123    39    69    1
   124    39    57    1
   125    40    70    1
   126    40    50    1
   127    41    71    1
   128    41    49    1
