@<TRIPOS>MOLECULE
*****
 123 128 0 0 0
SMALL
GASTEIGER

@<TRIPOS>ATOM
     1 C         5.167619   1.747012   0.492884 C.3        1 UNL1     0.0009
     2 C         6.604723   2.55296   -0.35695 C.2        1 UNL1     -0.0787
     3 C         7.886699   2.454597   -1.022462 C.2        1 UNL1     -0.0649
     4 C         8.764679   3.689702   -1.777462 C.2        1 UNL1     -0.0542
     5 C         9.784978   3.982346   -2.715773 C.2        1 UNL1     0.0115
     6 C         10.913149   3.356842   -3.581393 C.3        1 UNL1     -0.0348
     7 C         9.880897   5.465777   -3.32176 C.2        1 UNL1     0.2441
     8 O         10.704964   6.28704   -2.94365 O.2        1 UNL1     -0.2702
     9 N         9.130967   5.673373   -4.492512 N.am        1 UNL1     -0.2772
     10 C         7.848312   6.060349   -4.178875 C.2        1 UNL1     0.1049
     11 C         7.002166   5.089102   -3.887432 C.2        1 UNL1     0.0801
     12 C         6.550149   7.66693   -2.767846 C.ar        1 UNL1     0.0753
     13 C         5.790652   6.539101   -2.320884 C.ar        1 UNL1     0.0305
     14 C         5.907301   5.233581   -2.966687 C.2        1 UNL1     0.0924
     15 N         7.124402   3.760139   -4.046945 N.pl3        1 UNL1     -0.3170
     16 C         5.854295   3.16126   -3.733216 C.3        1 UNL1     0.1275
     17 N         5.218004   4.116363   -2.753096 N.2        1 UNL1     -0.2557
     18 C         5.00171   3.221022   -4.997031 C.3        1 UNL1     0.0016
     19 C         5.756595   2.537074   -6.125726 C.3        1 UNL1     0.0026
     20 N         6.026232   1.158758   -5.740279 N.3        1 UNL1     -0.3018
     21 C         6.789299   0.997709   -4.50086 C.3        1 UNL1     0.0026
     22 C         6.010553   1.688095   -3.379782 C.3        1 UNL1     0.0016
     23 C         6.470697   0.339455   -6.85016 C.3        1 UNL1     0.0012
     24 C         5.315364   0.090671   -7.832539 C.3        1 UNL1     -0.0339
     25 C         5.341457   1.094232   -8.997116 C.3        1 UNL1     -0.0615
     26 C         5.354406   -1.343881   -8.329848 C.3        1 UNL1     -0.0615
     27 C         6.34578   8.934507   -2.227845 C.ar        1 UNL1     0.1347
     28 C         5.386621   9.204033   -1.267938 C.ar        1 UNL1     0.0342
     29 C         4.684617   8.069648   -0.808021 C.ar        1 UNL1     0.1435
     30 C         4.903756   6.787721   -1.313849 C.ar        1 UNL1     0.0774
     31 O         3.643497   8.183254   0.045309 O.3        1 UNL1     -0.4436
     32 C         2.921462   6.950708   -0.097401 C.3        1 UNL1     0.3143
     33 C         3.93455   5.957463   -0.629689 C.2        1 UNL1     0.2504
     34 C         4.940126   10.570129   -0.826892 C.3        1 UNL1     -0.0327
     35 O         2.56044   6.513683   1.218626 O.2        1 UNL1     -0.4528
     36 C         -0.683136   4.582643   0.820642 C.3        1 UNL1     0.0854
     37 C         -0.988667   3.322451   -0.077183 C.3        1 UNL1     0.0236
     38 C         -1.589764   2.061335   0.710226 C.3        1 UNL1     0.1131
     39 C         -0.864415   1.529745   2.011591 C.3        1 UNL1     0.0200
     40 C         0.796724   1.383666   2.05302 C.3        1 UNL1     0.0661
     41 C         1.75607   0.61492   0.884133 C.3        1 UNL1     0.0091
     42 C         3.463875   0.977128   0.320564 C.3        1 UNL1     0.0661
     43 C         7.500333   7.459298   -3.888693 C.2        1 UNL1     0.2131
     44 O         7.900631   8.357486   -4.606856 O.2        1 UNL1     -0.2851
     45 O         7.158456   9.969509   -2.685846 O.3        1 UNL1     -0.5056
     46 O         3.950137   4.753881   -0.499301 O.2        1 UNL1     -0.2836
     47 C         5.563582   1.316943   1.93102 C.3        1 UNL1     -0.0566
     48 O         3.911981   -0.434145   0.401974 O.3        1 UNL1     -0.3909
     49 C         0.922037   0.382994   -0.356066 C.3        1 UNL1     -0.0577
     50 O         1.397233   2.601213   2.44633 O.3        1 UNL1     -0.3910
     51 O         -0.807538   4.392557   2.211981 O.3        1 UNL1     -0.3753
     52 C         0.055948   3.162024   -1.229568 C.3        1 UNL1     -0.0564
     53 O         -2.192529   1.022831   -0.190057 O.3        1 UNL1     -0.4608
     54 C         -2.427412   -0.283956   0.149157 C.2        1 UNL1     0.3042
     55 O         -1.858804   -1.28315   -0.289175 O.2        1 UNL1     -0.2512
     56 C         -3.467302   -0.44959   1.220563 C.3        1 UNL1     0.0332
     57 C         -1.585462   2.19856   3.272921 C.3        1 UNL1     -0.0567
     58 C         1.84654   7.196485   -1.181683 C.3        1 UNL1     0.0210
     59 C         -1.151421   5.565068   2.94875 C.3        1 UNL1     0.0372
     60 C         0.6461   5.211382   0.590468 C.2        1 UNL1     -0.0208
     61 C         1.559016   5.646049   1.460178 C.2        1 UNL1     0.0882
     62 H         4.691994   2.731307   0.580381 H        1 UNL1     0.0365
     63 H         6.338789   3.606809   -0.251357 H        1 UNL1     0.0576
     64 H         8.344088   1.487674   -1.243736 H        1 UNL1     0.0615
     65 H         8.277824   4.605142   -1.430439 H        1 UNL1     0.0622
     66 H         -1.427494   5.329505   0.510524 H        1 UNL1     0.0645
     67 H         -1.854009   3.632284   -0.688532 H        1 UNL1     0.0362
     68 H         -2.536759   2.498399   1.061934 H        1 UNL1     0.0741
     69 H         -1.196292   0.51869   2.206613 H        1 UNL1     0.0359
     70 H         0.908134   0.723021   2.93404 H        1 UNL1     0.0600
     71 H         1.799253   -0.406394   1.310759 H        1 UNL1     0.0348
     72 H         3.357974   1.465057   1.300374 H        1 UNL1     0.0602
     73 H         0.764241   5.408921   -0.446002 H        1 UNL1     0.0628
     74 H         1.541214   5.435052   2.529945 H        1 UNL1     0.1022
     75 H         10.957252   2.251501   -3.428717 H        1 UNL1     0.0279
     76 H         10.799732   3.440007   -4.659952 H        1 UNL1     0.0279
     77 H         11.918263   3.661124   -3.254501 H        1 UNL1     0.0279
     78 H         9.068783   4.803609   -5.017603 H        1 UNL1     0.1553
     79 H         7.789645   3.332131   -4.664354 H        1 UNL1     0.1484
     80 H         4.040239   2.730333   -4.803219 H        1 UNL1     0.0317
     81 H         4.775478   4.257932   -5.267749 H        1 UNL1     0.0317
     82 H         6.68747   3.068159   -6.373383 H        1 UNL1     0.0428
     83 H         5.131616   2.592695   -7.017555 H        1 UNL1     0.0428
     84 H         6.909234   -0.045378   -4.191996 H        1 UNL1     0.0428
     85 H         7.819527   1.365447   -4.604383 H        1 UNL1     0.0428
     86 H         6.526738   1.437284   -2.471688 H        1 UNL1     0.0317
     87 H         5.030935   1.21073   -3.255012 H        1 UNL1     0.0317
     88 H         7.267024   0.881164   -7.377142 H        1 UNL1     0.0429
     89 H         6.902931   -0.606564   -6.499453 H        1 UNL1     0.0429
     90 H         4.362444   0.197516   -7.300806 H        1 UNL1     0.0308
     91 H         6.291643   1.051372   -9.537867 H        1 UNL1     0.0233
     92 H         4.523084   0.898668   -9.693986 H        1 UNL1     0.0233
     93 H         5.21429   2.129765   -8.658981 H        1 UNL1     0.0233
     94 H         4.658231   -1.472979   -9.165618 H        1 UNL1     0.0233
     95 H         6.358763   -1.588364   -8.686861 H        1 UNL1     0.0233
     96 H         5.079675   -2.047878   -7.539355 H        1 UNL1     0.0233
     97 H         4.146642   10.520372   -0.087204 H        1 UNL1     0.0280
     98 H         5.752976   11.13977   -0.357808 H        1 UNL1     0.0280
     99 H         4.566777   11.13505   -1.696703 H        1 UNL1     0.0280
     100 H         6.691719   10.720368   -3.008323 H        1 UNL1     0.2922
     101 H         4.700544   0.883421   2.435877 H        1 UNL1     0.0236
     102 H         6.014516   2.121967   2.510311 H        1 UNL1     0.0236
     103 H         6.319578   0.514035   1.929804 H        1 UNL1     0.0236
     104 H         4.331323   -0.560534   1.275557 H        1 UNL1     0.2098
     105 H         0.709773   1.282068   -0.929146 H        1 UNL1     0.0234
     106 H         1.291291   -0.404943   -1.012369 H        1 UNL1     0.0234
     107 H         0.0   -0.0   0.0 H        1 UNL1     0.0234
     108 H         1.199609   3.259556   1.752574 H        1 UNL1     0.2098
     109 H         1.080681   3.04811   -0.84923 H        1 UNL1     0.0234
     110 H         -0.176637   2.335205   -1.909287 H        1 UNL1     0.0234
     111 H         0.07753   4.04503   -1.882086 H        1 UNL1     0.0234
     112 H         -3.600197   -1.511377   1.449238 H        1 UNL1     0.0342
     113 H         -3.223679   0.115989   2.118678 H        1 UNL1     0.0342
     114 H         -4.421819   -0.06621   0.834453 H        1 UNL1     0.0342
     115 H         -2.65517   1.950608   3.310765 H        1 UNL1     0.0234
     116 H         -1.149257   1.918369   4.233789 H        1 UNL1     0.0234
     117 H         -1.623706   3.300443   3.224622 H        1 UNL1     0.0234
     118 H         0.945548   7.683548   -0.769385 H        1 UNL1     0.0309
     119 H         2.21624   7.78461   -2.027634 H        1 UNL1     0.0309
     120 H         1.457751   6.264777   -1.60697 H        1 UNL1     0.0309
     121 H         -0.34694   6.287414   2.813165 H        1 UNL1     0.0524
     122 H         -2.081373   6.03132   2.582913 H        1 UNL1     0.0524
     123 H         -1.267362   5.326489   4.002188 H        1 UNL1     0.0524
@<TRIPOS>BOND
     1     1     2    1
     2     1    42    1
     3     2     3    2
     4     3     4    1
     5     4     5    2
     6     5     7    1
     7     6    75    1
     8     6    76    1
     9     6    77    1
    10     7     9   am
    11     9    10    1
    12    10    11    2
    13    10    43    1
    14    11    14    1
    15    11    15    1
    16    12    13   ar
    17    12    27   ar
    18    12    43    1
    19    13    14    1
    20    13    30   ar
    21    14    17    2
    22    15    16    1
    23    16    17    1
    24    16    18    1
    25    16    22    1
    26    18    19    1
    27    19    20    1
    28    20    21    1
    29    21    22    1
    30    23    24    1
    31    23    88    1
    32    23    89    1
    33    24    25    1
    34    24    26    1
    35    24    90    1
    36    25    91    1
    37    25    92    1
    38    25    93    1
    39    26    94    1
    40    26    95    1
    41    26    96    1
    42    27    28   ar
    43    28    29   ar
    44    29    30   ar
    45    29    31    1
    46    30    33    1
    47    31    32    1
    48    32    33    1
    49    32    35    1
    50    34    97    1
    51    34    98    1
    52    34    99    1
    53    35    61    1
    54    36    37    1
    55    36    60    1
    56    37    38    1
    57    38    39    1
    58    39    40    1
    59    40    41    1
    60    41    42    1
    61    45   100    1
    62    47   101    1
    63    47   102    1
    64    47   103    1
    65    48   104    1
    66    49   105    1
    67    49   106    1
    68    49   107    1
    69    50   108    1
    70    51    59    1
    71    52   109    1
    72    52   110    1
    73    52   111    1
    74    53    54    1
    75    54    55    2
    76    54    56    1
    77    56   112    1
    78    56   113    1
    79    56   114    1
    80    57   115    1
    81    57   116    1
    82    57   117    1
    83    58   118    1
    84    58   119    1
    85    58   120    1
    86    59   121    1
    87    59   122    1
    88    59   123    1
    89    60    61    2
    90     1    47    1
    91     1    62    1
    92     2    63    1
    93     3    64    1
    94     4    65    1
    95     5     6    1
    96     7     8    2
    97     9    78    1
    98    15    79    1
    99    18    80    1
   100    18    81    1
   101    19    82    1
   102    19    83    1
   103    20    23    1
   104    21    84    1
   105    21    85    1
   106    22    86    1
   107    22    87    1
   108    27    45    1
   109    28    34    1
   110    32    58    1
   111    33    46    2
   112    36    51    1
   113    36    66    1
   114    37    52    1
   115    37    67    1
   116    38    53    1
   117    38    68    1
   118    42    48    1
   119    42    72    1
   120    43    44    2
   121    60    73    1
   122    61    74    1
   123    39    69    1
   124    39    57    1
   125    40    70    1
   126    40    50    1
   127    41    71    1
   128    41    49    1
