@<TRIPOS>MOLECULE
*****
 123 128 0 0 0
SMALL
GASTEIGER

@<TRIPOS>ATOM
     1 C         -3.307641   -0.021665   -3.686211 C.3        1 UNL1     0.0009
     2 C         -5.021572   -0.610332   -4.077296 C.2        1 UNL1     -0.0787
     3 C         -5.926089   -1.668707   -4.474457 C.2        1 UNL1     -0.0649
     4 C         -7.616157   -1.615844   -4.559502 C.2        1 UNL1     -0.0542
     5 C         -8.802034   -2.390424   -4.587778 C.2        1 UNL1     0.0115
     6 C         -9.356144   -3.835526   -4.721812 C.3        1 UNL1     -0.0348
     7 C         -10.201553   -1.681036   -4.248506 C.2        1 UNL1     0.2441
     8 O         -11.007392   -1.35363   -5.108712 O.2        1 UNL1     -0.2702
     9 N         -10.555652   -1.697399   -2.888176 N.am        1 UNL1     -0.2772
     10 C         -10.030269   -0.602065   -2.242005 C.2        1 UNL1     0.1049
     11 C         -8.773744   -0.705591   -1.84875 C.2        1 UNL1     0.0801
     12 C         -9.813443   1.884371   -2.409207 C.ar        1 UNL1     0.0753
     13 C         -8.412102   1.698708   -2.184754 C.ar        1 UNL1     0.0305
     14 C         -7.868523   0.408496   -1.766513 C.2        1 UNL1     0.0924
     15 N         -7.974163   -1.784166   -1.786503 N.pl3        1 UNL1     -0.3170
     16 C         -6.757483   -1.391668   -1.126284 C.3        1 UNL1     0.1275
     17 N         -6.626119   0.082579   -1.421351 N.2        1 UNL1     -0.2557
     18 C         -7.001878   -1.502817   0.375588 C.3        1 UNL1     0.0016
     19 C         -7.45855   -2.918386   0.690552 C.3        1 UNL1     0.0026
     20 N         -6.4265   -3.850142   0.257273 N.3        1 UNL1     -0.3018
     21 C         -6.077718   -3.77516   -1.162973 C.3        1 UNL1     0.0026
     22 C         -5.617433   -2.346145   -1.456143 C.3        1 UNL1     0.0016
     23 C         -6.622424   -5.189506   0.77531 C.3        1 UNL1     0.0012
     24 C         -5.337862   -5.700711   1.446373 C.3        1 UNL1     -0.0339
     25 C         -5.618321   -6.91636   2.345036 C.3        1 UNL1     -0.0615
     26 C         -4.289367   -6.014148   0.393189 C.3        1 UNL1     -0.0615
     27 C         -10.338902   3.143522   -2.689479 C.ar        1 UNL1     0.1347
     28 C         -9.570679   4.293341   -2.731907 C.ar        1 UNL1     0.0342
     29 C         -8.187065   4.079041   -2.556258 C.ar        1 UNL1     0.1435
     30 C         -7.641837   2.818248   -2.310603 C.ar        1 UNL1     0.0774
     31 O         -7.320521   5.111083   -2.461396 O.3        1 UNL1     -0.4436
     32 C         -6.157574   4.551544   -1.832633 C.3        1 UNL1     0.3143
     33 C         -6.227772   3.065517   -2.12075 C.2        1 UNL1     0.2504
     34 C         -10.09376   5.702076   -2.776081 C.3        1 UNL1     -0.0327
     35 O         -5.011886   5.057777   -2.528606 O.2        1 UNL1     -0.4528
     36 C         -2.217874   5.206512   0.03644 C.3        1 UNL1     0.0854
     37 C         -1.620267   4.050032   0.926912 C.3        1 UNL1     0.0236
     38 C         -0.034447   3.848933   0.798535 C.3        1 UNL1     0.1131
     39 C         0.626272   3.711438   -0.632135 C.3        1 UNL1     0.0200
     40 C         -0.08243   2.75643   -1.80181 C.3        1 UNL1     0.0661
     41 C         -0.601614   1.154595   -1.596424 C.3        1 UNL1     0.0091
     42 C         -1.994689   0.246553   -2.371153 C.3        1 UNL1     0.0661
     43 C         -10.701123   0.706483   -2.245308 C.2        1 UNL1     0.2131
     44 O         -11.895006   0.789512   -2.02061 O.2        1 UNL1     -0.2851
     45 O         -11.70672   3.230475   -2.940376 O.3        1 UNL1     -0.5056
     46 O         -5.319047   2.269236   -2.198269 O.2        1 UNL1     -0.2836
     47 C         -2.485513   0.150363   -4.991774 C.3        1 UNL1     -0.0566
     48 O         -1.180221   -0.946619   -2.705965 O.3        1 UNL1     -0.3909
     49 C         -0.637162   0.838921   -0.117715 C.3        1 UNL1     -0.0577
     50 O         -1.049023   3.488241   -2.528358 O.3        1 UNL1     -0.3910
     51 O         -1.328008   5.798807   -0.882666 O.3        1 UNL1     -0.3753
     52 C         -2.604392   2.840951   1.04762 C.3        1 UNL1     -0.0564
     53 O         0.554077   3.003805   1.890195 O.3        1 UNL1     -0.4608
     54 C         -0.097944   2.608678   3.028911 C.2        1 UNL1     0.3042
     55 O         0.280663   1.781741   3.857566 O.2        1 UNL1     -0.2512
     56 C         -1.387426   3.341179   3.268476 C.3        1 UNL1     0.0332
     57 C         1.142754   5.161605   -1.066229 C.3        1 UNL1     -0.0567
     58 C         -6.332708   4.773754   -0.312278 C.3        1 UNL1     0.0210
     59 C         -1.877761   6.043956   -2.176319 C.3        1 UNL1     0.0372
     60 C         -3.443704   4.843794   -0.725753 C.2        1 UNL1     -0.0208
     61 C         -3.775684   5.085187   -1.994714 C.2        1 UNL1     0.0882
     62 H         -3.722076   0.964655   -3.445113 H        1 UNL1     0.0365
     63 H         -5.581321   0.323699   -3.995213 H        1 UNL1     0.0576
     64 H         -5.581437   -2.696772   -4.606383 H        1 UNL1     0.0615
     65 H         -7.846977   -0.548915   -4.497313 H        1 UNL1     0.0622
     66 H         -2.527651   5.977149   0.756304 H        1 UNL1     0.0645
     67 H         -1.710218   4.432304   1.958579 H        1 UNL1     0.0362
     68 H         0.306199   4.821633   1.184977 H        1 UNL1     0.0741
     69 H         1.605145   3.264155   -0.521889 H        1 UNL1     0.0359
     70 H         0.767989   2.650108   -2.502199 H        1 UNL1     0.0600
     71 H         0.311867   0.613366   -1.911989 H        1 UNL1     0.0348
     72 H         -1.798804   1.11242   -3.020167 H        1 UNL1     0.0602
     73 H         -4.158949   4.428712   -0.059885 H        1 UNL1     0.0628
     74 H         -3.084631   5.453946   -2.753463 H        1 UNL1     0.1022
     75 H         -9.312084   -4.175258   -5.784673 H        1 UNL1     0.0279
     76 H         -8.804745   -4.616578   -4.203173 H        1 UNL1     0.0279
     77 H         -10.435338   -3.897702   -4.518895 H        1 UNL1     0.0279
     78 H         -10.170622   -2.528645   -2.444487 H        1 UNL1     0.1553
     79 H         -8.312324   -2.728931   -1.786582 H        1 UNL1     0.1484
     80 H         -6.076189   -1.252828   0.907915 H        1 UNL1     0.0317
     81 H         -7.756979   -0.780434   0.703669 H        1 UNL1     0.0317
     82 H         -8.424302   -3.149384   0.217397 H        1 UNL1     0.0428
     83 H         -7.628826   -2.975075   1.766118 H        1 UNL1     0.0428
     84 H         -5.245961   -4.428005   -1.445437 H        1 UNL1     0.0428
     85 H         -6.905906   -4.105148   -1.805257 H        1 UNL1     0.0428
     86 H         -5.246413   -2.362506   -2.464143 H        1 UNL1     0.0317
     87 H         -4.726466   -2.110039   -0.861562 H        1 UNL1     0.0317
     88 H         -7.419184   -5.150788   1.52961 H        1 UNL1     0.0429
     89 H         -6.958168   -5.87648   -0.012165 H        1 UNL1     0.0429
     90 H         -4.912371   -4.90077   2.063841 H        1 UNL1     0.0308
     91 H         -6.656745   -7.248316   2.252397 H        1 UNL1     0.0233
     92 H         -4.952939   -7.745235   2.092367 H        1 UNL1     0.0233
     93 H         -5.447162   -6.69945   3.406399 H        1 UNL1     0.0233
     94 H         -4.655469   -5.732088   -0.599911 H        1 UNL1     0.0233
     95 H         -3.378216   -5.442769   0.591411 H        1 UNL1     0.0233
     96 H         -4.042307   -7.079406   0.380712 H        1 UNL1     0.0233
     97 H         -11.158852   5.747896   -2.569418 H        1 UNL1     0.0280
     98 H         -9.614267   6.345247   -2.026632 H        1 UNL1     0.0280
     99 H         -9.917124   6.13013   -3.776413 H        1 UNL1     0.0280
     100 H         -12.179528   2.426396   -2.815751 H        1 UNL1     0.2922
     101 H         -1.420821   0.144442   -4.759285 H        1 UNL1     0.0236
     102 H         -2.773635   1.029582   -5.567049 H        1 UNL1     0.0236
     103 H         -2.625528   -0.696653   -5.683983 H        1 UNL1     0.0236
     104 H         -1.524066   -1.695365   -2.180494 H        1 UNL1     0.2098
     105 H         -0.261047   1.634532   0.520527 H        1 UNL1     0.0234
     106 H         -1.600089   0.483718   0.249066 H        1 UNL1     0.0234
     107 H         0.0   -0.0   0.0 H        1 UNL1     0.0234
     108 H         -1.520281   4.058799   -1.89106 H        1 UNL1     0.2098
     109 H         -2.437464   2.088881   0.263886 H        1 UNL1     0.0234
     110 H         -2.57501   2.358563   2.030566 H        1 UNL1     0.0234
     111 H         -3.650106   3.157725   0.937702 H        1 UNL1     0.0234
     112 H         -1.583474   3.407888   4.342935 H        1 UNL1     0.0342
     113 H         -1.389077   4.328451   2.808981 H        1 UNL1     0.0342
     114 H         -2.201508   2.760678   2.813004 H        1 UNL1     0.0342
     115 H         0.547349   5.577273   -1.890791 H        1 UNL1     0.0234
     116 H         1.139715   5.894553   -0.257016 H        1 UNL1     0.0234
     117 H         2.15116   5.15345   -1.51455 H        1 UNL1     0.0234
     118 H         -5.364335   4.797347   0.217538 H        1 UNL1     0.0309
     119 H         -6.894234   5.682334   -0.072753 H        1 UNL1     0.0309
     120 H         -6.866732   3.950156   0.17415 H        1 UNL1     0.0309
     121 H         -1.174073   6.674067   -2.719587 H        1 UNL1     0.0524
     122 H         -2.009704   5.116139   -2.75751 H        1 UNL1     0.0524
     123 H         -2.837976   6.544239   -2.088003 H        1 UNL1     0.0524
@<TRIPOS>BOND
     1     1     2    1
     2     1    42    1
     3     2     3    2
     4     3     4    1
     5     4     5    2
     6     5     7    1
     7     6    75    1
     8     6    76    1
     9     6    77    1
    10     7     9   am
    11     9    10    1
    12    10    11    2
    13    10    43    1
    14    11    14    1
    15    11    15    1
    16    12    13   ar
    17    12    27   ar
    18    12    43    1
    19    13    14    1
    20    13    30   ar
    21    14    17    2
    22    15    16    1
    23    16    17    1
    24    16    18    1
    25    16    22    1
    26    18    19    1
    27    19    20    1
    28    20    21    1
    29    21    22    1
    30    23    24    1
    31    23    88    1
    32    23    89    1
    33    24    25    1
    34    24    26    1
    35    24    90    1
    36    25    91    1
    37    25    92    1
    38    25    93    1
    39    26    94    1
    40    26    95    1
    41    26    96    1
    42    27    28   ar
    43    28    29   ar
    44    29    30   ar
    45    29    31    1
    46    30    33    1
    47    31    32    1
    48    32    33    1
    49    32    35    1
    50    34    97    1
    51    34    98    1
    52    34    99    1
    53    35    61    1
    54    36    37    1
    55    36    60    1
    56    37    38    1
    57    38    39    1
    58    39    40    1
    59    40    41    1
    60    41    42    1
    61    45   100    1
    62    47   101    1
    63    47   102    1
    64    47   103    1
    65    48   104    1
    66    49   105    1
    67    49   106    1
    68    49   107    1
    69    50   108    1
    70    51    59    1
    71    52   109    1
    72    52   110    1
    73    52   111    1
    74    53    54    1
    75    54    55    2
    76    54    56    1
    77    56   112    1
    78    56   113    1
    79    56   114    1
    80    57   115    1
    81    57   116    1
    82    57   117    1
    83    58   118    1
    84    58   119    1
    85    58   120    1
    86    59   121    1
    87    59   122    1
    88    59   123    1
    89    60    61    2
    90     1    47    1
    91     1    62    1
    92     2    63    1
    93     3    64    1
    94     4    65    1
    95     5     6    1
    96     7     8    2
    97     9    78    1
    98    15    79    1
    99    18    80    1
   100    18    81    1
   101    19    82    1
   102    19    83    1
   103    20    23    1
   104    21    84    1
   105    21    85    1
   106    22    86    1
   107    22    87    1
   108    27    45    1
   109    28    34    1
   110    32    58    1
   111    33    46    2
   112    36    51    1
   113    36    66    1
   114    37    52    1
   115    37    67    1
   116    38    53    1
   117    38    68    1
   118    42    48    1
   119    42    72    1
   120    43    44    2
   121    60    73    1
   122    61    74    1
   123    39    69    1
   124    39    57    1
   125    40    70    1
   126    40    50    1
   127    41    71    1
   128    41    49    1
