@<TRIPOS>MOLECULE
*****
 123 128 0 0 0
SMALL
GASTEIGER

@<TRIPOS>ATOM
     1 C         4.644122   2.757818   -0.915604 C.3        1 UNL1     0.0009
     2 C         6.425335   2.639686   -1.415965 C.2        1 UNL1     -0.0787
     3 C         7.829937   2.621953   -1.065504 C.2        1 UNL1     -0.0649
     4 C         9.152626   2.334651   -2.082514 C.2        1 UNL1     -0.0542
     5 C         10.516052   1.953258   -2.134341 C.2        1 UNL1     0.0115
     6 C         11.781143   1.69083   -1.271786 C.3        1 UNL1     -0.0348
     7 C         11.12839   1.44608   -3.528902 C.2        1 UNL1     0.2441
     8 O         11.830709   2.149246   -4.242227 O.2        1 UNL1     -0.2702
     9 N         11.021864   0.061956   -3.750272 N.am        1 UNL1     -0.2772
     10 C         9.822684   -0.236687   -4.355336 C.2        1 UNL1     0.1049
     11 C         8.778991   -0.350764   -3.554141 C.2        1 UNL1     0.0801
     12 C         8.33941   0.430619   -6.255845 C.ar        1 UNL1     0.0753
     13 C         7.275812   0.495357   -5.300243 C.ar        1 UNL1     0.0305
     14 C         7.434434   -0.021218   -3.942657 C.2        1 UNL1     0.0924
     15 N         8.723708   -0.430286   -2.213564 N.pl3        1 UNL1     -0.3170
     16 C         7.362485   -0.71725   -1.84617 C.3        1 UNL1     0.1275
     17 N         6.537506   -0.133463   -2.96703 N.2        1 UNL1     -0.2557
     18 C         7.180772   -2.22975   -1.92999 C.3        1 UNL1     0.0016
     19 C         8.223298   -2.894596   -1.045281 C.3        1 UNL1     0.0026
     20 N         8.048442   -2.420764   0.320712 N.3        1 UNL1     -0.3018
     21 C         8.144379   -0.969677   0.492501 C.3        1 UNL1     0.0026
     22 C         7.085351   -0.322399   -0.401582 C.3        1 UNL1     0.0016
     23 C         8.78576   -3.207501   1.289243 C.3        1 UNL1     0.0012
     24 C         8.159236   -4.602798   1.438813 C.3        1 UNL1     -0.0339
     25 C         8.283917   -5.12368   2.88006 C.3        1 UNL1     -0.0615
     26 C         6.712517   -4.57626   0.977209 C.3        1 UNL1     -0.0615
     27 C         8.143655   0.813487   -7.580688 C.ar        1 UNL1     0.1347
     28 C         6.923168   1.238251   -8.074688 C.ar        1 UNL1     0.0342
     29 C         5.903286   1.34044   -7.104862 C.ar        1 UNL1     0.1435
     30 C         6.094432   0.994825   -5.766492 C.ar        1 UNL1     0.0774
     31 O         4.630368   1.634107   -7.449023 O.3        1 UNL1     -0.4436
     32 C         3.841703   1.189565   -6.334904 C.3        1 UNL1     0.3143
     33 C         4.793809   1.175399   -5.156131 C.2        1 UNL1     0.2504
     34 C         6.575345   1.423306   -9.525506 C.3        1 UNL1     -0.0327
     35 O         2.866273   2.205544   -6.071133 O.2        1 UNL1     -0.4528
     36 C         -0.151029   0.403914   -4.636521 C.3        1 UNL1     0.0854
     37 C         -0.24466   -0.527807   -3.367406 C.3        1 UNL1     0.0236
     38 C         -1.34259   -0.086955   -2.284843 C.3        1 UNL1     0.1131
     39 C         -1.372231   1.404754   -1.759302 C.3        1 UNL1     0.0200
     40 C         0.045498   2.189224   -1.362955 C.3        1 UNL1     0.0661
     41 C         1.270792   1.58088   -0.359869 C.3        1 UNL1     0.0091
     42 C         3.085919   1.842811   -0.405771 C.3        1 UNL1     0.0661
     43 C         9.633924   -0.142319   -5.810608 C.2        1 UNL1     0.2131
     44 O         10.460891   -0.609368   -6.572664 O.2        1 UNL1     -0.2851
     45 O         9.242628   0.76335   -8.435781 O.3        1 UNL1     -0.5056
     46 O         4.538696   1.306153   -3.979835 O.2        1 UNL1     -0.2836
     47 C         4.282081   4.223052   -0.552291 C.3        1 UNL1     -0.0566
     48 O         3.196555   2.125459   1.045775 O.3        1 UNL1     -0.3909
     49 C         1.043778   0.099577   -0.155664 C.3        1 UNL1     -0.0577
     50 O         0.613951   2.803097   -2.502141 O.3        1 UNL1     -0.3910
     51 O         -0.908161   1.592022   -4.585723 O.3        1 UNL1     -0.3753
     52 C         1.155155   -1.086763   -2.951431 C.3        1 UNL1     -0.0564
     53 O         -1.657763   -1.1558   -1.279575 O.3        1 UNL1     -0.4608
     54 C         -1.916707   -0.945747   0.049618 C.2        1 UNL1     0.3042
     55 O         -2.80942   -0.252835   0.536212 O.2        1 UNL1     -0.2512
     56 C         -1.011852   -1.717031   0.967808 C.3        1 UNL1     0.0332
     57 C         -2.446199   2.203382   -2.635066 C.3        1 UNL1     -0.0567
     58 C         3.417736   -0.263611   -6.651233 C.3        1 UNL1     0.0210
     59 C         -2.058671   1.606139   -5.429521 C.3        1 UNL1     0.0372
     60 C         1.230573   0.79191   -5.031233 C.2        1 UNL1     -0.0208
     61 C         1.726162   1.976486   -5.391673 C.2        1 UNL1     0.0882
     62 H         4.35975   2.616265   -1.965274 H        1 UNL1     0.0365
     63 H         6.329693   2.608122   -2.503314 H        1 UNL1     0.0576
     64 H         8.160377   2.635702   -0.024481 H        1 UNL1     0.0615
     65 H         8.731701   2.420299   -3.087984 H        1 UNL1     0.0622
     66 H         -0.537984   -0.212169   -5.460387 H        1 UNL1     0.0645
     67 H         -0.681779   -1.464709   -3.754318 H        1 UNL1     0.0362
     68 H         -2.254435   -0.201035   -2.890688 H        1 UNL1     0.0741
     69 H         -1.927828   1.435918   -0.831537 H        1 UNL1     0.0359
     70 H         -0.36142   3.030296   -0.769595 H        1 UNL1     0.0600
     71 H         0.941158   1.987562   0.616301 H        1 UNL1     0.0348
     72 H         2.645775   2.667522   -0.984943 H        1 UNL1     0.0602
     73 H         1.826823   -0.082056   -5.120216 H        1 UNL1     0.0628
     74 H         1.201139   2.925374   -5.276781 H        1 UNL1     0.1022
     75 H         11.866817   2.452513   -0.45967 H        1 UNL1     0.0279
     76 H         11.80543   0.754705   -0.718477 H        1 UNL1     0.0279
     77 H         12.716139   1.858828   -1.826096 H        1 UNL1     0.0279
     78 H         11.046319   -0.429795   -2.859396 H        1 UNL1     0.1553
     79 H         9.506537   -0.68024   -1.637687 H        1 UNL1     0.1484
     80 H         6.163059   -2.485775   -1.611437 H        1 UNL1     0.0317
     81 H         7.28324   -2.579523   -2.962855 H        1 UNL1     0.0317
     82 H         9.244954   -2.700665   -1.403783 H        1 UNL1     0.0428
     83 H         8.076893   -3.972483   -1.121267 H        1 UNL1     0.0428
     84 H         7.930453   -0.633565   1.511852 H        1 UNL1     0.0428
     85 H         9.161147   -0.601353   0.297983 H        1 UNL1     0.0428
     86 H         7.094584   0.722303   -0.151578 H        1 UNL1     0.0317
     87 H         6.084492   -0.648335   -0.09313 H        1 UNL1     0.0317
     88 H         9.814217   -3.323623   0.923066 H        1 UNL1     0.0429
     89 H         8.845193   -2.694238   2.257645 H        1 UNL1     0.0429
     90 H         8.674524   -5.301569   0.769179 H        1 UNL1     0.0308
     91 H         8.0027   -4.355275   3.606402 H        1 UNL1     0.0233
     92 H         7.654898   -6.004586   3.028212 H        1 UNL1     0.0233
     93 H         9.306989   -5.433773   3.125014 H        1 UNL1     0.0233
     94 H         6.643668   -4.896166   -0.068141 H        1 UNL1     0.0233
     95 H         6.115073   -5.265348   1.580683 H        1 UNL1     0.0233
     96 H         6.28545   -3.572935   1.060394 H        1 UNL1     0.0233
     97 H         5.733291   0.806256   -9.824546 H        1 UNL1     0.0280
     98 H         6.285807   2.457557   -9.75299 H        1 UNL1     0.0280
     99 H         7.44191   1.151689   -10.150314 H        1 UNL1     0.0280
     100 H         10.019469   1.174481   -8.099461 H        1 UNL1     0.2922
     101 H         3.20103   4.355173   -0.591395 H        1 UNL1     0.0236
     102 H         4.806259   4.957974   -1.162298 H        1 UNL1     0.0236
     103 H         4.557098   4.472279   0.486191 H        1 UNL1     0.0236
     104 H         2.321319   1.957249   1.446572 H        1 UNL1     0.2098
     105 H         1.313336   -0.517895   -1.008822 H        1 UNL1     0.0234
     106 H         1.479588   -0.306317   0.75716 H        1 UNL1     0.0234
     107 H         0.0   0.0   0.0 H        1 UNL1     0.0234
     108 H         1.532509   3.04385   -2.273976 H        1 UNL1     0.2098
     109 H         1.612733   -1.694631   -3.74442 H        1 UNL1     0.0234
     110 H         1.855446   -0.304582   -2.639134 H        1 UNL1     0.0234
     111 H         1.083967   -1.745469   -2.075655 H        1 UNL1     0.0234
     112 H         -0.722309   -1.090963   1.81725 H        1 UNL1     0.0342
     113 H         -1.466946   -2.647066   1.305101 H        1 UNL1     0.0342
     114 H         -0.099243   -1.975035   0.413063 H        1 UNL1     0.0342
     115 H         -2.963919   2.972136   -2.045006 H        1 UNL1     0.0234
     116 H         -2.025257   2.693234   -3.515351 H        1 UNL1     0.0234
     117 H         -3.295256   1.580494   -2.965299 H        1 UNL1     0.0234
     118 H         2.33616   -0.344294   -6.857845 H        1 UNL1     0.0309
     119 H         3.97531   -0.701999   -7.484978 H        1 UNL1     0.0309
     120 H         3.563443   -0.938586   -5.800772 H        1 UNL1     0.0309
     121 H         -2.76434   0.87444   -5.037089 H        1 UNL1     0.0524
     122 H         -2.563777   2.586394   -5.431861 H        1 UNL1     0.0524
     123 H         -1.780915   1.350193   -6.448068 H        1 UNL1     0.0524
@<TRIPOS>BOND
     1     1     2    1
     2     1    42    1
     3     2     3    2
     4     3     4    1
     5     4     5    2
     6     5     7    1
     7     6    75    1
     8     6    76    1
     9     6    77    1
    10     7     9   am
    11     9    10    1
    12    10    11    2
    13    10    43    1
    14    11    14    1
    15    11    15    1
    16    12    13   ar
    17    12    27   ar
    18    12    43    1
    19    13    14    1
    20    13    30   ar
    21    14    17    2
    22    15    16    1
    23    16    17    1
    24    16    18    1
    25    16    22    1
    26    18    19    1
    27    19    20    1
    28    20    21    1
    29    21    22    1
    30    23    24    1
    31    23    88    1
    32    23    89    1
    33    24    25    1
    34    24    26    1
    35    24    90    1
    36    25    91    1
    37    25    92    1
    38    25    93    1
    39    26    94    1
    40    26    95    1
    41    26    96    1
    42    27    28   ar
    43    28    29   ar
    44    29    30   ar
    45    29    31    1
    46    30    33    1
    47    31    32    1
    48    32    33    1
    49    32    35    1
    50    34    97    1
    51    34    98    1
    52    34    99    1
    53    35    61    1
    54    36    37    1
    55    36    60    1
    56    37    38    1
    57    38    39    1
    58    39    40    1
    59    40    41    1
    60    41    42    1
    61    45   100    1
    62    47   101    1
    63    47   102    1
    64    47   103    1
    65    48   104    1
    66    49   105    1
    67    49   106    1
    68    49   107    1
    69    50   108    1
    70    51    59    1
    71    52   109    1
    72    52   110    1
    73    52   111    1
    74    53    54    1
    75    54    55    2
    76    54    56    1
    77    56   112    1
    78    56   113    1
    79    56   114    1
    80    57   115    1
    81    57   116    1
    82    57   117    1
    83    58   118    1
    84    58   119    1
    85    58   120    1
    86    59   121    1
    87    59   122    1
    88    59   123    1
    89    60    61    2
    90     1    47    1
    91     1    62    1
    92     2    63    1
    93     3    64    1
    94     4    65    1
    95     5     6    1
    96     7     8    2
    97     9    78    1
    98    15    79    1
    99    18    80    1
   100    18    81    1
   101    19    82    1
   102    19    83    1
   103    20    23    1
   104    21    84    1
   105    21    85    1
   106    22    86    1
   107    22    87    1
   108    27    45    1
   109    28    34    1
   110    32    58    1
   111    33    46    2
   112    36    51    1
   113    36    66    1
   114    37    52    1
   115    37    67    1
   116    38    53    1
   117    38    68    1
   118    42    48    1
   119    42    72    1
   120    43    44    2
   121    60    73    1
   122    61    74    1
   123    39    69    1
   124    39    57    1
   125    40    70    1
   126    40    50    1
   127    41    71    1
   128    41    49    1
