@<TRIPOS>MOLECULE
*****
 123 128 0 0 0
SMALL
GASTEIGER

@<TRIPOS>ATOM
     1 C         2.897407   3.077072   -2.57884 C.3        1 UNL1     0.0009
     2 C         3.130137   3.475611   -4.374402 C.2        1 UNL1     -0.0787
     3 C         3.960944   3.492041   -5.559954 C.2        1 UNL1     -0.0649
     4 C         3.518911   3.930382   -7.134381 C.2        1 UNL1     -0.0542
     5 C         3.854052   3.823513   -8.506729 C.2        1 UNL1     0.0115
     6 C         4.9559   3.359671   -9.49875 C.3        1 UNL1     -0.0348
     7 C         2.733798   4.153956   -9.608013 C.2        1 UNL1     0.2441
     8 O         2.700315   5.208262   -10.227565 O.2        1 UNL1     -0.2702
     9 N         1.951347   3.054062   -10.000636 N.am        1 UNL1     -0.2772
     10 C         0.862377   2.918674   -9.170493 C.2        1 UNL1     0.1049
     11 C         1.072812   2.279862   -8.033893 C.2        1 UNL1     0.0801
     12 C         -1.020897   4.205325   -8.143291 C.ar        1 UNL1     0.0753
     13 C         -0.618335   3.64249   -6.890387 C.ar        1 UNL1     0.0305
     14 C         0.359529   2.559224   -6.817111 C.2        1 UNL1     0.0924
     15 N         2.129245   1.550557   -7.635658 N.pl3        1 UNL1     -0.3170
     16 C         1.787004   0.928315   -6.384283 C.3        1 UNL1     0.1275
     17 N         0.77237   1.858191   -5.76495 N.2        1 UNL1     -0.2557
     18 C         1.037408   -0.359986   -6.709995 C.3        1 UNL1     0.0016
     19 C         1.908686   -1.213345   -7.617873 C.3        1 UNL1     0.0026
     20 N         3.162458   -1.49557   -6.932721 N.3        1 UNL1     -0.3018
     21 C         3.926704   -0.315372   -6.52354 C.3        1 UNL1     0.0026
     22 C         3.034151   0.525041   -5.608691 C.3        1 UNL1     0.0016
     23 C         3.935014   -2.538726   -7.577413 C.3        1 UNL1     0.0012
     24 C         3.030257   -3.409745   -8.463131 C.3        1 UNL1     -0.0339
     25 C         3.497928   -4.874384   -8.476271 C.3        1 UNL1     -0.0615
     26 C         1.585577   -3.288279   -8.010445 C.3        1 UNL1     -0.0615
     27 C         -2.039995   5.152114   -8.215042 C.ar        1 UNL1     0.1347
     28 C         -2.753877   5.582747   -7.110968 C.ar        1 UNL1     0.0342
     29 C         -2.307401   5.051546   -5.882291 C.ar        1 UNL1     0.1435
     30 C         -1.263893   4.129597   -5.791071 C.ar        1 UNL1     0.0774
     31 O         -2.970475   5.288723   -4.729431 O.3        1 UNL1     -0.4436
     32 C         -2.534608   4.249589   -3.839997 C.3        1 UNL1     0.3143
     33 C         -1.192965   3.800525   -4.382722 C.2        1 UNL1     0.2504
     34 C         -4.016278   6.398569   -7.14059 C.3        1 UNL1     -0.0327
     35 O         -2.287296   4.85581   -2.565405 O.2        1 UNL1     -0.4528
     36 C         -3.001886   2.170441   0.020372 C.3        1 UNL1     0.0854
     37 C         -2.362899   0.736288   0.170115 C.3        1 UNL1     0.0236
     38 C         -1.717076   0.430681   1.605825 C.3        1 UNL1     0.1131
     39 C         -0.692524   1.455511   2.240085 C.3        1 UNL1     0.0200
     40 C         0.504573   2.142542   1.303397 C.3        1 UNL1     0.0661
     41 C         1.567908   1.306542   0.279662 C.3        1 UNL1     0.0091
     42 C         2.343279   1.816058   -1.30293 C.3        1 UNL1     0.0661
     43 C         -0.378216   3.68146   -9.374058 C.2        1 UNL1     0.2131
     44 O         -0.874874   3.769378   -10.482363 O.2        1 UNL1     -0.2851
     45 O         -2.339656   5.683677   -9.467672 O.3        1 UNL1     -0.5056
     46 O         -0.265777   3.303572   -3.783378 O.2        1 UNL1     -0.2836
     47 C         3.647338   4.110204   -1.695537 C.3        1 UNL1     -0.0566
     48 O         3.702205   1.368609   -0.912769 O.3        1 UNL1     -0.3909
     49 C         1.051705   -0.101674   0.084839 C.3        1 UNL1     -0.0577
     50 O         0.030291   3.308025   0.659635 O.3        1 UNL1     -0.3910
     51 O         -2.776445   3.060108   1.090466 O.3        1 UNL1     -0.3753
     52 C         -1.697749   0.25389   -1.16023 C.3        1 UNL1     -0.0564
     53 O         -1.438198   -1.025028   1.841334 O.3        1 UNL1     -0.4608
     54 C         -1.553436   -1.672317   3.043692 C.2        1 UNL1     0.3042
     55 O         -0.644482   -2.001797   3.804668 O.2        1 UNL1     -0.2512
     56 C         -2.975258   -1.933553   3.452216 C.3        1 UNL1     0.0332
     57 C         -1.514762   2.415229   3.220412 C.3        1 UNL1     -0.0567
     58 C         -3.547301   3.090717   -3.991654 C.3        1 UNL1     0.0210
     59 C         -3.858846   3.174469   2.013069 C.3        1 UNL1     0.0372
     60 C         -2.633617   2.895957   -1.225888 C.2        1 UNL1     -0.0208
     61 C         -2.261581   4.163337   -1.410499 C.2        1 UNL1     0.0882
     62 H         1.860333   3.425329   -2.655682 H        1 UNL1     0.0365
     63 H         2.179774   3.964157   -4.59935 H        1 UNL1     0.0576
     64 H         4.957337   3.044537   -5.566932 H        1 UNL1     0.0615
     65 H         2.556713   4.433162   -7.004493 H        1 UNL1     0.0622
     66 H         -4.083165   1.985173   -0.047151 H        1 UNL1     0.0645
     67 H         -3.231178   0.054635   0.170444 H        1 UNL1     0.0362
     68 H         -2.620285   0.496065   2.231494 H        1 UNL1     0.0741
     69 H         -0.128427   0.950502   3.012853 H        1 UNL1     0.0359
     70 H         1.176036   2.519497   2.098445 H        1 UNL1     0.0600
     71 H         2.411487   1.134007   0.976486 H        1 UNL1     0.0348
     72 H         2.024309   2.745133   -0.808567 H        1 UNL1     0.0602
     73 H         -2.826861   2.272322   -2.063137 H        1 UNL1     0.0628
     74 H         -1.988924   4.849159   -0.607664 H        1 UNL1     0.1022
     75 H         4.674129   2.38786   -9.971213 H        1 UNL1     0.0279
     76 H         5.131258   3.997706   -10.362017 H        1 UNL1     0.0279
     77 H         5.896052   3.091284   -8.994981 H        1 UNL1     0.0279
     78 H         2.500441   2.200128   -9.927359 H        1 UNL1     0.1553
     79 H         2.810672   1.167583   -8.264881 H        1 UNL1     0.1484
     80 H         0.801151   -0.882299   -5.775041 H        1 UNL1     0.0317
     81 H         0.081222   -0.143548   -7.198374 H        1 UNL1     0.0317
     82 H         2.088387   -0.724501   -8.586713 H        1 UNL1     0.0428
     83 H         1.354434   -2.125979   -7.839132 H        1 UNL1     0.0428
     84 H         4.82273   -0.553055   -5.941771 H        1 UNL1     0.0428
     85 H         4.310537   0.243142   -7.38844 H        1 UNL1     0.0428
     86 H         3.66563   1.304579   -5.224578 H        1 UNL1     0.0317
     87 H         2.767938   -0.05015   -4.713491 H        1 UNL1     0.0317
     88 H         4.690896   -2.060177   -8.213753 H        1 UNL1     0.0429
     89 H         4.473979   -3.148695   -6.841051 H        1 UNL1     0.0429
     90 H         3.0557   -3.025846   -9.489867 H        1 UNL1     0.0308
     91 H         4.072254   -5.116592   -7.577055 H        1 UNL1     0.0233
     92 H         2.644014   -5.55191   -8.549744 H        1 UNL1     0.0233
     93 H         4.141702   -5.099531   -9.335165 H        1 UNL1     0.0233
     94 H         0.948264   -3.958598   -8.597251 H        1 UNL1     0.0233
     95 H         1.498212   -3.575023   -6.958729 H        1 UNL1     0.0233
     96 H         1.214596   -2.266459   -8.129717 H        1 UNL1     0.0233
     97 H         -4.84098   5.891111   -6.649077 H        1 UNL1     0.0280
     98 H         -3.901038   7.358376   -6.620259 H        1 UNL1     0.0280
     99 H         -4.304847   6.594128   -8.186334 H        1 UNL1     0.0280
     100 H         -1.590695   5.966524   -9.962321 H        1 UNL1     0.2922
     101 H         3.136455   4.215412   -0.738675 H        1 UNL1     0.0236
     102 H         3.793098   5.07048   -2.189102 H        1 UNL1     0.0236
     103 H         4.663774   3.771351   -1.434328 H        1 UNL1     0.0236
     104 H         4.128637   2.105053   -0.432377 H        1 UNL1     0.2098
     105 H         1.412362   -0.59158   -0.816122 H        1 UNL1     0.0234
     106 H         1.177851   -0.75628   0.947106 H        1 UNL1     0.0234
     107 H         -0.0   0.0   0.0 H        1 UNL1     0.0234
     108 H         0.625199   3.485511   -0.094255 H        1 UNL1     0.2098
     109 H         -1.579414   -0.838158   -1.193995 H        1 UNL1     0.0234
     110 H         -2.230563   0.592561   -2.055302 H        1 UNL1     0.0234
     111 H         -0.687033   0.666234   -1.280105 H        1 UNL1     0.0234
     112 H         -3.561428   -2.24416   2.582002 H        1 UNL1     0.0342
     113 H         -3.04296   -2.66966   4.251846 H        1 UNL1     0.0342
     114 H         -3.402487   -0.993638   3.827981 H        1 UNL1     0.0342
     115 H         -0.864206   3.152709   3.710401 H        1 UNL1     0.0234
     116 H         -2.322096   2.963483   2.730843 H        1 UNL1     0.0234
     117 H         -1.939518   1.891855   4.094256 H        1 UNL1     0.0234
     118 H         -3.653124   2.767389   -5.042019 H        1 UNL1     0.0309
     119 H         -3.301987   2.222004   -3.372492 H        1 UNL1     0.0309
     120 H         -4.565723   3.383356   -3.713653 H        1 UNL1     0.0309
     121 H         -3.787172   4.153693   2.485657 H        1 UNL1     0.0524
     122 H         -4.840993   3.11737   1.514909 H        1 UNL1     0.0524
     123 H         -3.797821   2.390949   2.763047 H        1 UNL1     0.0524
@<TRIPOS>BOND
     1     1     2    1
     2     1    42    1
     3     2     3    2
     4     3     4    1
     5     4     5    2
     6     5     7    1
     7     6    75    1
     8     6    76    1
     9     6    77    1
    10     7     9   am
    11     9    10    1
    12    10    11    2
    13    10    43    1
    14    11    14    1
    15    11    15    1
    16    12    13   ar
    17    12    27   ar
    18    12    43    1
    19    13    14    1
    20    13    30   ar
    21    14    17    2
    22    15    16    1
    23    16    17    1
    24    16    18    1
    25    16    22    1
    26    18    19    1
    27    19    20    1
    28    20    21    1
    29    21    22    1
    30    23    24    1
    31    23    88    1
    32    23    89    1
    33    24    25    1
    34    24    26    1
    35    24    90    1
    36    25    91    1
    37    25    92    1
    38    25    93    1
    39    26    94    1
    40    26    95    1
    41    26    96    1
    42    27    28   ar
    43    28    29   ar
    44    29    30   ar
    45    29    31    1
    46    30    33    1
    47    31    32    1
    48    32    33    1
    49    32    35    1
    50    34    97    1
    51    34    98    1
    52    34    99    1
    53    35    61    1
    54    36    37    1
    55    36    60    1
    56    37    38    1
    57    38    39    1
    58    39    40    1
    59    40    41    1
    60    41    42    1
    61    45   100    1
    62    47   101    1
    63    47   102    1
    64    47   103    1
    65    48   104    1
    66    49   105    1
    67    49   106    1
    68    49   107    1
    69    50   108    1
    70    51    59    1
    71    52   109    1
    72    52   110    1
    73    52   111    1
    74    53    54    1
    75    54    55    2
    76    54    56    1
    77    56   112    1
    78    56   113    1
    79    56   114    1
    80    57   115    1
    81    57   116    1
    82    57   117    1
    83    58   118    1
    84    58   119    1
    85    58   120    1
    86    59   121    1
    87    59   122    1
    88    59   123    1
    89    60    61    2
    90     1    47    1
    91     1    62    1
    92     2    63    1
    93     3    64    1
    94     4    65    1
    95     5     6    1
    96     7     8    2
    97     9    78    1
    98    15    79    1
    99    18    80    1
   100    18    81    1
   101    19    82    1
   102    19    83    1
   103    20    23    1
   104    21    84    1
   105    21    85    1
   106    22    86    1
   107    22    87    1
   108    27    45    1
   109    28    34    1
   110    32    58    1
   111    33    46    2
   112    36    51    1
   113    36    66    1
   114    37    52    1
   115    37    67    1
   116    38    53    1
   117    38    68    1
   118    42    48    1
   119    42    72    1
   120    43    44    2
   121    60    73    1
   122    61    74    1
   123    39    69    1
   124    39    57    1
   125    40    70    1
   126    40    50    1
   127    41    71    1
   128    41    49    1
