@<TRIPOS>MOLECULE
*****
 123 128 0 0 0
SMALL
GASTEIGER

@<TRIPOS>ATOM
     1 C         5.169242   1.744859   0.483396 C.3        1 UNL1     0.0009
     2 C         6.605471   2.549253   -0.369385 C.2        1 UNL1     -0.0787
     3 C         7.886391   2.449595   -1.036736 C.2        1 UNL1     -0.0649
     4 C         8.763857   3.683523   -1.794254 C.2        1 UNL1     -0.0542
     5 C         9.782887   3.97474   -2.734387 C.2        1 UNL1     0.0115
     6 C         10.909432   3.347825   -3.601103 C.3        1 UNL1     -0.0348
     7 C         9.878643   5.457536   -3.341953 C.2        1 UNL1     0.2441
     8 O         10.703697   6.278744   -2.965882 O.2        1 UNL1     -0.2702
     9 N         9.127052   5.664381   -4.511772 N.am        1 UNL1     -0.2772
     10 C         7.845069   6.052312   -4.196574 C.2        1 UNL1     0.1049
     11 C         6.998871   5.081778   -3.902915 C.2        1 UNL1     0.0801
     12 C         6.549852   7.660917   -2.785144 C.ar        1 UNL1     0.0753
     13 C         5.790459   6.533908   -2.335945 C.ar        1 UNL1     0.0305
     14 C         5.90547   5.227705   -2.98066 C.2        1 UNL1     0.0924
     15 N         7.120192   3.7526   -4.061327 N.pl3        1 UNL1     -0.3170
     16 C         5.850256   3.154671   -3.745103 C.3        1 UNL1     0.1275
     17 N         5.21593   4.111045   -2.764948 N.2        1 UNL1     -0.2557
     18 C         4.995795   3.213645   -5.007687 C.3        1 UNL1     0.0016
     19 C         5.748629   2.528222   -6.136858 C.3        1 UNL1     0.0026
     20 N         6.018148   1.150142   -5.750484 N.3        1 UNL1     -0.3018
     21 C         6.783003   0.989903   -4.512062 C.3        1 UNL1     0.0026
     22 C         6.0063   1.681769   -3.390479 C.3        1 UNL1     0.0016
     23 C         6.460521   0.32954   -6.860242 C.3        1 UNL1     0.0012
     24 C         5.303581   0.080394   -7.840635 C.3        1 UNL1     -0.0339
     25 C         5.378381   1.025981   -9.050728 C.3        1 UNL1     -0.0615
     26 C         5.289131   -1.376481   -8.269688 C.3        1 UNL1     -0.0615
     27 C         6.346942   8.929119   -2.246061 C.ar        1 UNL1     0.1347
     28 C         5.38937   9.200061   -1.28497 C.ar        1 UNL1     0.0342
     29 C         4.687485   8.066478   -0.822896 C.ar        1 UNL1     0.1435
     30 C         4.90521   6.783952   -1.327814 C.ar        1 UNL1     0.0774
     31 O         3.647712   8.18144   0.031893 O.3        1 UNL1     -0.4436
     32 C         2.924837   6.949123   -0.108534 C.3        1 UNL1     0.3143
     33 C         3.936616   5.954849   -0.641389 C.2        1 UNL1     0.2504
     34 C         4.944234   10.56681   -0.844572 C.3        1 UNL1     -0.0327
     35 O         2.56558   6.513555   1.208458 O.2        1 UNL1     -0.4528
     36 C         -0.679571   4.583781   0.817238 C.3        1 UNL1     0.0854
     37 C         -0.987097   3.322877   -0.078905 C.3        1 UNL1     0.0236
     38 C         -1.587645   2.062829   0.71063 C.3        1 UNL1     0.1131
     39 C         -0.860601   1.532128   2.011412 C.3        1 UNL1     0.0200
     40 C         0.800524   1.385245   2.050476 C.3        1 UNL1     0.0661
     41 C         1.757714   0.614881   0.880887 C.3        1 UNL1     0.0091
     42 C         3.46485   0.975675   0.314392 C.3        1 UNL1     0.0661
     43 C         7.498238   7.451718   -3.907221 C.2        1 UNL1     0.2131
     44 O         7.897906   8.349008   -4.626857 O.2        1 UNL1     -0.2851
     45 O         7.15945   9.963265   -2.706289 O.3        1 UNL1     -0.5056
     46 O         3.95179   4.751386   -0.50986 O.2        1 UNL1     -0.2836
     47 C         5.567158   1.315979   1.921348 C.3        1 UNL1     -0.0566
     48 O         3.912362   -0.435746   0.396491 O.3        1 UNL1     -0.3909
     49 C         0.921693   0.38218   -0.357827 C.3        1 UNL1     -0.0577
     50 O         1.402243   2.602866   2.441701 O.3        1 UNL1     -0.3910
     51 O         -0.80197   4.395104   2.208946 O.3        1 UNL1     -0.3753
     52 C         0.055696   3.160805   -1.232709 C.3        1 UNL1     -0.0564
     53 O         -2.192295   1.023762   -0.187738 O.3        1 UNL1     -0.4608
     54 C         -2.427328   -0.282577   0.153095 C.2        1 UNL1     0.3042
     55 O         -1.858612   -1.282356   -0.283762 O.2        1 UNL1     -0.2512
     56 C         -3.467565   -0.446789   1.224382 C.3        1 UNL1     0.0332
     57 C         -1.579404   2.202529   3.273181 C.3        1 UNL1     -0.0567
     58 C         1.848405   7.194399   -1.19143 C.3        1 UNL1     0.0210
     59 C         -1.113214   5.574844   2.948679 C.3        1 UNL1     0.0372
     60 C         0.649634   5.211621   0.58445 C.2        1 UNL1     -0.0208
     61 C         1.564082   5.646664   1.45236 C.2        1 UNL1     0.0882
     62 H         4.694249   2.72948   0.570657 H        1 UNL1     0.0365
     63 H         6.340231   3.603339   -0.264411 H        1 UNL1     0.0576
     64 H         8.342955   1.482226   -1.257764 H        1 UNL1     0.0615
     65 H         8.27799   4.599545   -1.447384 H        1 UNL1     0.0622
     66 H         -1.424018   5.330721   0.507521 H        1 UNL1     0.0645
     67 H         -1.853203   3.632559   -0.689247 H        1 UNL1     0.0362
     68 H         -2.533886   2.500714   1.063343 H        1 UNL1     0.0741
     69 H         -1.192697   0.521431   2.207913 H        1 UNL1     0.0359
     70 H         0.912929   0.725395   2.931965 H        1 UNL1     0.0600
     71 H         1.801023   -0.406042   1.308435 H        1 UNL1     0.0348
     72 H         3.360676   1.464605   1.293887 H        1 UNL1     0.0602
     73 H         0.766311   5.408098   -0.452387 H        1 UNL1     0.0628
     74 H         1.547788   5.436711   2.522356 H        1 UNL1     0.1022
     75 H         10.934562   2.23922   -3.469204 H        1 UNL1     0.0279
     76 H         10.807888   3.453261   -4.678898 H        1 UNL1     0.0279
     77 H         11.915988   3.629732   -3.258943 H        1 UNL1     0.0279
     78 H         9.063634   4.794142   -5.035927 H        1 UNL1     0.1553
     79 H         7.784285   3.323657   -4.679325 H        1 UNL1     0.1484
     80 H         4.034369   2.723632   -4.811949 H        1 UNL1     0.0317
     81 H         4.76968   4.250408   -5.279066 H        1 UNL1     0.0317
     82 H         6.679398   3.058593   -6.386432 H        1 UNL1     0.0428
     83 H         5.122333   2.583299   -7.027795 H        1 UNL1     0.0428
     84 H         6.902875   -0.052946   -4.202371 H        1 UNL1     0.0428
     85 H         7.813259   1.357017   -4.617496 H        1 UNL1     0.0428
     86 H         6.523728   1.431573   -2.482923 H        1 UNL1     0.0317
     87 H         5.026629   1.205023   -3.26377 H        1 UNL1     0.0317
     88 H         7.256327   0.870334   -7.388948 H        1 UNL1     0.0429
     89 H         6.892804   -0.616359   -6.509272 H        1 UNL1     0.0429
     90 H         4.35172   0.249775   -7.323445 H        1 UNL1     0.0308
     91 H         6.332618   0.92459   -9.576327 H        1 UNL1     0.0233
     92 H         4.561687   0.82599   -9.748313 H        1 UNL1     0.0233
     93 H         5.283887   2.080193   -8.763426 H        1 UNL1     0.0233
     94 H         4.598155   -1.516495   -9.10801 H        1 UNL1     0.0233
     95 H         6.28667   -1.678321   -8.601004 H        1 UNL1     0.0233
     96 H         4.976173   -2.030498   -7.450978 H        1 UNL1     0.0233
     97 H         4.14554   10.518307   -0.110429 H        1 UNL1     0.0280
     98 H         5.755666   11.133015   -0.368919 H        1 UNL1     0.0280
     99 H         4.578669   11.134449   -1.715918 H        1 UNL1     0.0280
     100 H         6.692622   10.714573   -3.027585 H        1 UNL1     0.2922
     101 H         4.701535   0.894805   2.432198 H        1 UNL1     0.0236
     102 H         6.030461   2.117941   2.495099 H        1 UNL1     0.0236
     103 H         6.313559   0.504144   1.919762 H        1 UNL1     0.0236
     104 H         4.32758   -0.563073   1.271906 H        1 UNL1     0.2098
     105 H         0.70902   1.280808   -0.931456 H        1 UNL1     0.0234
     106 H         1.289556   -0.406578   -1.013925 H        1 UNL1     0.0234
     107 H         0.0   -0.0   0.0 H        1 UNL1     0.0234
     108 H         1.218318   3.256141   1.739439 H        1 UNL1     0.2098
     109 H         1.082403   3.059127   -0.854231 H        1 UNL1     0.0234
     110 H         -0.171667   2.325834   -1.904181 H        1 UNL1     0.0234
     111 H         0.067939   4.037943   -1.893335 H        1 UNL1     0.0234
     112 H         -3.591456   -1.507392   1.463373 H        1 UNL1     0.0342
     113 H         -3.230511   0.129807   2.117235 H        1 UNL1     0.0342
     114 H         -4.424767   -0.075732   0.832916 H        1 UNL1     0.0342
     115 H         -2.64918   1.955158   3.312879 H        1 UNL1     0.0234
     116 H         -1.141892   1.923046   4.233661 H        1 UNL1     0.0234
     117 H         -1.617162   3.304384   3.223874 H        1 UNL1     0.0234
     118 H         0.94766   7.68091   -0.777943 H        1 UNL1     0.0309
     119 H         2.2167   7.782818   -2.03779 H        1 UNL1     0.0309
     120 H         1.459605   6.262513   -1.616318 H        1 UNL1     0.0309
     121 H         -0.274755   6.262392   2.840875 H        1 UNL1     0.0524
     122 H         -2.012208   6.084755   2.56418 H        1 UNL1     0.0524
     123 H         -1.266536   5.332038   3.996358 H        1 UNL1     0.0524
@<TRIPOS>BOND
     1     1     2    1
     2     1    42    1
     3     2     3    2
     4     3     4    1
     5     4     5    2
     6     5     7    1
     7     6    75    1
     8     6    76    1
     9     6    77    1
    10     7     9   am
    11     9    10    1
    12    10    11    2
    13    10    43    1
    14    11    14    1
    15    11    15    1
    16    12    13   ar
    17    12    27   ar
    18    12    43    1
    19    13    14    1
    20    13    30   ar
    21    14    17    2
    22    15    16    1
    23    16    17    1
    24    16    18    1
    25    16    22    1
    26    18    19    1
    27    19    20    1
    28    20    21    1
    29    21    22    1
    30    23    24    1
    31    23    88    1
    32    23    89    1
    33    24    25    1
    34    24    26    1
    35    24    90    1
    36    25    91    1
    37    25    92    1
    38    25    93    1
    39    26    94    1
    40    26    95    1
    41    26    96    1
    42    27    28   ar
    43    28    29   ar
    44    29    30   ar
    45    29    31    1
    46    30    33    1
    47    31    32    1
    48    32    33    1
    49    32    35    1
    50    34    97    1
    51    34    98    1
    52    34    99    1
    53    35    61    1
    54    36    37    1
    55    36    60    1
    56    37    38    1
    57    38    39    1
    58    39    40    1
    59    40    41    1
    60    41    42    1
    61    45   100    1
    62    47   101    1
    63    47   102    1
    64    47   103    1
    65    48   104    1
    66    49   105    1
    67    49   106    1
    68    49   107    1
    69    50   108    1
    70    51    59    1
    71    52   109    1
    72    52   110    1
    73    52   111    1
    74    53    54    1
    75    54    55    2
    76    54    56    1
    77    56   112    1
    78    56   113    1
    79    56   114    1
    80    57   115    1
    81    57   116    1
    82    57   117    1
    83    58   118    1
    84    58   119    1
    85    58   120    1
    86    59   121    1
    87    59   122    1
    88    59   123    1
    89    60    61    2
    90     1    47    1
    91     1    62    1
    92     2    63    1
    93     3    64    1
    94     4    65    1
    95     5     6    1
    96     7     8    2
    97     9    78    1
    98    15    79    1
    99    18    80    1
   100    18    81    1
   101    19    82    1
   102    19    83    1
   103    20    23    1
   104    21    84    1
   105    21    85    1
   106    22    86    1
   107    22    87    1
   108    27    45    1
   109    28    34    1
   110    32    58    1
   111    33    46    2
   112    36    51    1
   113    36    66    1
   114    37    52    1
   115    37    67    1
   116    38    53    1
   117    38    68    1
   118    42    48    1
   119    42    72    1
   120    43    44    2
   121    60    73    1
   122    61    74    1
   123    39    69    1
   124    39    57    1
   125    40    70    1
   126    40    50    1
   127    41    71    1
   128    41    49    1
