@<TRIPOS>MOLECULE
*****
 123 128 0 0 0
SMALL
GASTEIGER

@<TRIPOS>ATOM
     1 C         5.148783   1.870743   -0.045918 C.3        1 UNL1     0.0009
     2 C         6.709191   2.092654   0.930257 C.2        1 UNL1     -0.0787
     3 C         7.604272   2.937133   1.692972 C.2        1 UNL1     -0.0649
     4 C         8.997884   2.480102   2.538742 C.2        1 UNL1     -0.0542
     5 C         9.908593   2.84649   3.560234 C.2        1 UNL1     0.0115
     6 C         10.343356   4.004534   4.500042 C.3        1 UNL1     -0.0348
     7 C         10.853191   1.717419   4.200485 C.2        1 UNL1     0.2441
     8 O         12.033452   1.590992   3.904636 O.2        1 UNL1     -0.2702
     9 N         10.306439   1.052955   5.312106 N.am        1 UNL1     -0.2772
     10 C         9.562633   -0.03095   4.905629 C.2        1 UNL1     0.1049
     11 C         8.322248   0.222415   4.529498 C.2        1 UNL1     0.0801
     12 C         9.639717   -2.047706   3.427763 C.ar        1 UNL1     0.0753
     13 C         8.382281   -1.612504   2.900447 C.ar        1 UNL1     0.0305
     14 C         7.6212   -0.534594   3.528076 C.2        1 UNL1     0.0924
     15 N         7.587144   1.338533   4.672437 N.pl3        1 UNL1     -0.3170
     16 C         6.245547   1.038453   4.247792 C.3        1 UNL1     0.1275
     17 N         6.408041   -0.072349   3.239111 N.2        1 UNL1     -0.2557
     18 C         5.5203   0.424038   5.441196 C.3        1 UNL1     0.0016
     19 C         5.606896   1.389418   6.612577 C.3        1 UNL1     0.0026
     20 N         4.997325   2.65343   6.223057 N.3        1 UNL1     -0.3018
     21 C         5.588155   3.291643   5.044934 C.3        1 UNL1     0.0026
     22 C         5.486256   2.306247   3.879384 C.3        1 UNL1     0.0016
     23 C         4.758527   3.534857   7.348536 C.3        1 UNL1     0.0012
     24 C         6.00531   4.384254   7.641474 C.3        1 UNL1     -0.0339
     25 C         6.159214   4.656649   9.146855 C.3        1 UNL1     -0.0615
     26 C         7.239986   3.712709   7.065817 C.3        1 UNL1     -0.0615
     27 C         10.300798   -3.153307   2.897918 C.ar        1 UNL1     0.1347
     28 C         9.786117   -3.923882   1.870608 C.ar        1 UNL1     0.0342
     29 C         8.570672   -3.447685   1.334796 C.ar        1 UNL1     0.1435
     30 C         7.914859   -2.320545   1.831471 C.ar        1 UNL1     0.0774
     31 O         7.887734   -4.149557   0.404217 O.3        1 UNL1     -0.4436
     32 C         6.551415   -3.628632   0.465553 C.3        1 UNL1     0.3143
     33 C         6.694006   -2.240771   1.056926 C.2        1 UNL1     0.2504
     34 C         10.310765   -5.25945   1.422162 C.3        1 UNL1     -0.0327
     35 O         6.096569   -3.462743   -0.883094 O.2        1 UNL1     -0.4528
     36 C         2.333989   -3.953126   -0.78011 C.3        1 UNL1     0.0854
     37 C         1.251188   -3.179309   0.066218 C.3        1 UNL1     0.0236
     38 C         0.061016   -2.530226   -0.790476 C.3        1 UNL1     0.1131
     39 C         0.398484   -1.621458   -2.040486 C.3        1 UNL1     0.0200
     40 C         1.613808   -0.482235   -1.953328 C.3        1 UNL1     0.0661
     41 C         1.80545   0.674447   -0.727372 C.3        1 UNL1     0.0091
     42 C         3.325799   1.421971   -0.023702 C.3        1 UNL1     0.0661
     43 C         10.173582   -1.336779   4.615968 C.2        1 UNL1     0.2131
     44 O         10.987774   -1.821472   5.380757 O.2        1 UNL1     -0.2851
     45 O         11.541894   -3.483058   3.438644 O.3        1 UNL1     -0.5056
     46 O         5.974059   -1.279301   0.904922 O.2        1 UNL1     -0.2836
     47 C         5.300731   2.501361   -1.456313 C.3        1 UNL1     -0.0566
     48 O         2.813295   2.811619   -0.096727 O.3        1 UNL1     -0.3909
     49 C         0.916716   0.301875   0.438319 C.3        1 UNL1     -0.0577
     50 O         2.864183   -1.057774   -2.274328 O.3        1 UNL1     -0.3910
     51 O         2.22243   -3.833413   -2.180344 O.3        1 UNL1     -0.3753
     52 C         1.885842   -2.448458   1.294233 C.3        1 UNL1     -0.0564
     53 O         -1.118352   -2.114031   0.039102 O.3        1 UNL1     -0.4608
     54 C         -1.102035   -1.897682   1.392193 C.2        1 UNL1     0.3042
     55 O         -1.386122   -0.858086   1.985803 O.2        1 UNL1     -0.2512
     56 C         -0.743015   -3.117576   2.191991 C.3        1 UNL1     0.0332
     57 C         0.338921   -2.549639   -3.34168 C.3        1 UNL1     -0.0567
     58 C         5.779822   -4.520364   1.466046 C.3        1 UNL1     0.0210
     59 C         1.766988   -5.009252   -2.848056 C.3        1 UNL1     0.0372
     60 C         3.746539   -3.637343   -0.433493 C.2        1 UNL1     -0.0208
     61 C         4.794614   -3.388231   -1.219767 C.2        1 UNL1     0.0882
     62 H         5.389064   0.805946   -0.151674 H        1 UNL1     0.0365
     63 H         7.158077   1.102825   0.824382 H        1 UNL1     0.0576
     64 H         7.350485   3.972538   1.930955 H        1 UNL1     0.0615
     65 H         9.206158   1.471301   2.172101 H        1 UNL1     0.0622
     66 H         2.187775   -5.009817   -0.515399 H        1 UNL1     0.0645
     67 H         0.718436   -3.976556   0.613148 H        1 UNL1     0.0362
     68 H         -0.385948   -3.445604   -1.207402 H        1 UNL1     0.0741
     69 H         -0.47041   -1.023332   -2.280645 H        1 UNL1     0.0359
     70 H         1.359263   0.136   -2.835401 H        1 UNL1     0.0600
     71 H         1.241437   1.51936   -1.168925 H        1 UNL1     0.0348
     72 H         3.616138   1.005518   -0.999195 H        1 UNL1     0.0602
     73 H         3.884087   -3.754876   0.612698 H        1 UNL1     0.0628
     74 H         4.729904   -3.197204   -2.291475 H        1 UNL1     0.1022
     75 H         10.933931   4.766308   3.936166 H        1 UNL1     0.0279
     76 H         9.545257   4.601894   4.935093 H        1 UNL1     0.0279
     77 H         11.071323   3.684931   5.260054 H        1 UNL1     0.0279
     78 H         9.682686   1.681758   5.813719 H        1 UNL1     0.1553
     79 H         7.799109   2.064382   5.332093 H        1 UNL1     0.1484
     80 H         4.47846   0.224807   5.162553 H        1 UNL1     0.0317
     81 H         5.961977   -0.540633   5.713194 H        1 UNL1     0.0317
     82 H         6.645656   1.536204   6.943249 H        1 UNL1     0.0428
     83 H         5.085106   0.930888   7.453134 H        1 UNL1     0.0428
     84 H         5.062164   4.197005   4.726397 H        1 UNL1     0.0428
     85 H         6.614809   3.633031   5.236642 H        1 UNL1     0.0428
     86 H         5.803654   2.851993   3.010242 H        1 UNL1     0.0317
     87 H         4.433285   2.083036   3.668379 H        1 UNL1     0.0317
     88 H         3.931276   4.207273   7.086223 H        1 UNL1     0.0429
     89 H         4.445593   2.971351   8.236966 H        1 UNL1     0.0429
     90 H         5.916198   5.344719   7.120148 H        1 UNL1     0.0308
     91 H         6.011141   3.744854   9.733207 H        1 UNL1     0.0233
     92 H         7.147557   5.06744   9.366027 H        1 UNL1     0.0233
     93 H         5.433821   5.392547   9.514406 H        1 UNL1     0.0233
     94 H         8.139008   4.072472   7.57784 H        1 UNL1     0.0233
     95 H         7.179119   2.630609   7.211817 H        1 UNL1     0.0233
     96 H         7.344952   3.919346   5.997055 H        1 UNL1     0.0233
     97 H         11.268239   -5.172446   0.91728 H        1 UNL1     0.0280
     98 H         10.476465   -5.943172   2.264969 H        1 UNL1     0.0280
     99 H         9.593365   -5.722618   0.725092 H        1 UNL1     0.0280
     100 H         11.504542   -4.058554   4.182305 H        1 UNL1     0.2922
     101 H         5.439048   1.71477   -2.197799 H        1 UNL1     0.0236
     102 H         6.086882   3.253948   -1.506928 H        1 UNL1     0.0236
     103 H         4.386033   3.028612   -1.774945 H        1 UNL1     0.0236
     104 H         1.876441   2.766448   -0.371018 H        1 UNL1     0.2098
     105 H         1.286766   -0.525388   1.038745 H        1 UNL1     0.0234
     106 H         0.632582   1.136388   1.079242 H        1 UNL1     0.0234
     107 H         -0.0   0.0   0.0 H        1 UNL1     0.0234
     108 H         3.553273   -0.412242   -2.024907 H        1 UNL1     0.2098
     109 H         1.231174   -2.472563   2.176582 H        1 UNL1     0.0234
     110 H         2.875117   -2.83544   1.561298 H        1 UNL1     0.0234
     111 H         2.063541   -1.38518   1.084923 H        1 UNL1     0.0234
     112 H         -0.768765   -2.882928   3.260459 H        1 UNL1     0.0342
     113 H         -1.389644   -3.963031   1.961951 H        1 UNL1     0.0342
     114 H         0.285663   -3.405719   1.935165 H        1 UNL1     0.0342
     115 H         -0.033193   -2.001106   -4.21794 H        1 UNL1     0.0234
     116 H         1.298472   -2.993037   -3.615008 H        1 UNL1     0.0234
     117 H         -0.403482   -3.362902   -3.268314 H        1 UNL1     0.0234
     118 H         5.067662   -3.938102   2.076625 H        1 UNL1     0.0309
     119 H         5.2466   -5.345553   0.983407 H        1 UNL1     0.0309
     120 H         6.436543   -4.979424   2.213099 H        1 UNL1     0.0309
     121 H         0.684711   -4.932802   -2.948989 H        1 UNL1     0.0524
     122 H         2.189089   -5.104438   -3.862358 H        1 UNL1     0.0524
     123 H         2.028319   -5.893082   -2.273039 H        1 UNL1     0.0524
@<TRIPOS>BOND
     1     1     2    1
     2     1    42    1
     3     2     3    2
     4     3     4    1
     5     4     5    2
     6     5     7    1
     7     6    75    1
     8     6    76    1
     9     6    77    1
    10     7     9   am
    11     9    10    1
    12    10    11    2
    13    10    43    1
    14    11    14    1
    15    11    15    1
    16    12    13   ar
    17    12    27   ar
    18    12    43    1
    19    13    14    1
    20    13    30   ar
    21    14    17    2
    22    15    16    1
    23    16    17    1
    24    16    18    1
    25    16    22    1
    26    18    19    1
    27    19    20    1
    28    20    21    1
    29    21    22    1
    30    23    24    1
    31    23    88    1
    32    23    89    1
    33    24    25    1
    34    24    26    1
    35    24    90    1
    36    25    91    1
    37    25    92    1
    38    25    93    1
    39    26    94    1
    40    26    95    1
    41    26    96    1
    42    27    28   ar
    43    28    29   ar
    44    29    30   ar
    45    29    31    1
    46    30    33    1
    47    31    32    1
    48    32    33    1
    49    32    35    1
    50    34    97    1
    51    34    98    1
    52    34    99    1
    53    35    61    1
    54    36    37    1
    55    36    60    1
    56    37    38    1
    57    38    39    1
    58    39    40    1
    59    40    41    1
    60    41    42    1
    61    45   100    1
    62    47   101    1
    63    47   102    1
    64    47   103    1
    65    48   104    1
    66    49   105    1
    67    49   106    1
    68    49   107    1
    69    50   108    1
    70    51    59    1
    71    52   109    1
    72    52   110    1
    73    52   111    1
    74    53    54    1
    75    54    55    2
    76    54    56    1
    77    56   112    1
    78    56   113    1
    79    56   114    1
    80    57   115    1
    81    57   116    1
    82    57   117    1
    83    58   118    1
    84    58   119    1
    85    58   120    1
    86    59   121    1
    87    59   122    1
    88    59   123    1
    89    60    61    2
    90     1    47    1
    91     1    62    1
    92     2    63    1
    93     3    64    1
    94     4    65    1
    95     5     6    1
    96     7     8    2
    97     9    78    1
    98    15    79    1
    99    18    80    1
   100    18    81    1
   101    19    82    1
   102    19    83    1
   103    20    23    1
   104    21    84    1
   105    21    85    1
   106    22    86    1
   107    22    87    1
   108    27    45    1
   109    28    34    1
   110    32    58    1
   111    33    46    2
   112    36    51    1
   113    36    66    1
   114    37    52    1
   115    37    67    1
   116    38    53    1
   117    38    68    1
   118    42    48    1
   119    42    72    1
   120    43    44    2
   121    60    73    1
   122    61    74    1
   123    39    69    1
   124    39    57    1
   125    40    70    1
   126    40    50    1
   127    41    71    1
   128    41    49    1
