@<TRIPOS>MOLECULE
*****
 123 128 0 0 0
SMALL
GASTEIGER

@<TRIPOS>ATOM
     1 C         1.323131   0.542529   5.197517 C.3        1 UNL1     0.0009
     2 C         1.702381   1.728978   6.570669 C.2        1 UNL1     -0.0787
     3 C         2.660175   2.494321   7.340686 C.2        1 UNL1     -0.0649
     4 C         2.347817   3.631245   8.555673 C.2        1 UNL1     -0.0542
     5 C         2.874626   4.725765   9.284766 C.2        1 UNL1     0.0115
     6 C         4.168475   5.533839   9.578527 C.3        1 UNL1     -0.0348
     7 C         1.864586   5.689824   10.076851 C.2        1 UNL1     0.2441
     8 O         1.697004   5.627945   11.287063 O.2        1 UNL1     -0.2702
     9 N         1.382759   6.779144   9.330276 N.am        1 UNL1     -0.2772
     10 C         0.245543   6.424003   8.641844 C.2        1 UNL1     0.1049
     11 C         0.431765   5.802262   7.491635 C.2        1 UNL1     0.0801
     12 C         -1.979634   5.316676   8.924238 C.ar        1 UNL1     0.0753
     13 C         -1.63789   4.516507   7.787775 C.ar        1 UNL1     0.0305
     14 C         -0.476813   4.825017   6.956046 C.2        1 UNL1     0.0924
     15 N         1.553854   5.63814   6.770171 N.pl3        1 UNL1     -0.3170
     16 C         1.185586   5.038267   5.515267 C.3        1 UNL1     0.1275
     17 N         -0.070444   4.260044   5.822646 N.2        1 UNL1     -0.2557
     18 C         0.76551   6.168109   4.580016 C.3        1 UNL1     0.0016
     19 C         1.904608   7.170734   4.486261 C.3        1 UNL1     0.0026
     20 N         3.088786   6.487732   3.984006 N.3        1 UNL1     -0.3018
     21 C         3.53431   5.345566   4.784839 C.3        1 UNL1     0.0026
     22 C         2.37632   4.349075   4.862032 C.3        1 UNL1     0.0016
     23 C         4.136581   7.402113   3.575748 C.3        1 UNL1     0.0012
     24 C         5.50151   6.695971   3.58514 C.3        1 UNL1     -0.0339
     25 C         6.009186   6.472464   5.019144 C.3        1 UNL1     -0.0615
     26 C         5.418257   5.391374   2.811915 C.3        1 UNL1     -0.0615
     27 C         -3.152907   5.090115   9.639933 C.ar        1 UNL1     0.1347
     28 C         -4.078331   4.122344   9.291995 C.ar        1 UNL1     0.0342
     29 C         -3.697309   3.314821   8.199341 C.ar        1 UNL1     0.1435
     30 C         -2.508007   3.506682   7.495089 C.ar        1 UNL1     0.0774
     31 O         -4.540158   2.400967   7.670679 O.3        1 UNL1     -0.4436
     32 C         -4.020773   2.145851   6.356896 C.3        1 UNL1     0.3143
     33 C         -2.556247   2.52823   6.428753 C.2        1 UNL1     0.2504
     34 C         -5.466242   3.98713   9.853707 C.3        1 UNL1     -0.0327
     35 O         -4.07228   0.729458   6.146113 O.2        1 UNL1     -0.4528
     36 C         -4.553304   0.249925   2.411578 C.3        1 UNL1     0.0854
     37 C         -3.658945   0.762539   1.217898 C.3        1 UNL1     0.0236
     38 C         -3.157982   -0.379592   0.209773 C.3        1 UNL1     0.1131
     39 C         -2.4576   -1.678224   0.780115 C.3        1 UNL1     0.0200
     40 C         -1.314716   -1.5599   1.989352 C.3        1 UNL1     0.0661
     41 C         0.022282   -0.515858   1.99424 C.3        1 UNL1     0.0091
     42 C         0.877177   0.316363   3.387784 C.3        1 UNL1     0.0661
     43 C         -1.087543   6.453547   9.261814 C.2        1 UNL1     0.2131
     44 O         -1.442071   7.414988   9.919596 O.2        1 UNL1     -0.2851
     45 O         -3.388466   5.883951   10.760546 O.3        1 UNL1     -0.5056
     46 O         -1.633535   2.104256   5.769435 O.2        1 UNL1     -0.2836
     47 C         1.722815   -0.900817   5.606158 C.3        1 UNL1     -0.0566
     48 O         2.235895   -0.061709   2.929458 O.3        1 UNL1     -0.3909
     49 C         -0.163972   0.520639   0.908663 C.3        1 UNL1     -0.0577
     50 O         -1.929474   -1.56365   3.262059 O.3        1 UNL1     -0.3910
     51 O         -4.657377   -1.149491   2.546611 O.3        1 UNL1     -0.3753
     52 C         -2.740519   1.952574   1.64832 C.3        1 UNL1     -0.0564
     53 O         -2.619716   0.155906   -1.084769 O.3        1 UNL1     -0.4608
     54 C         -1.546103   -0.350373   -1.769579 C.2        1 UNL1     0.3042
     55 O         -1.078426   0.057086   -2.832168 O.2        1 UNL1     -0.2512
     56 C         -0.871282   -1.495046   -1.068825 C.3        1 UNL1     0.0332
     57 C         -3.580445   -2.808153   0.923822 C.3        1 UNL1     -0.0567
     58 C         -4.745391   3.123511   5.402622 C.3        1 UNL1     0.0210
     59 C         -5.953151   -1.621637   2.912552 C.3        1 UNL1     0.0372
     60 C         -4.181647   0.783866   3.750212 C.2        1 UNL1     -0.0208
     61 C         -4.056612   0.163347   4.924123 C.2        1 UNL1     0.0882
     62 H         0.255876   0.648427   5.426569 H        1 UNL1     0.0365
     63 H         0.709856   1.859412   7.006963 H        1 UNL1     0.0576
     64 H         3.719315   2.519213   7.074772 H        1 UNL1     0.0615
     65 H         1.294398   3.469176   8.799651 H        1 UNL1     0.0622
     66 H         -5.555202   0.647262   2.196241 H        1 UNL1     0.0645
     67 H         -4.361309   1.32615   0.579473 H        1 UNL1     0.0362
     68 H         -4.129419   -0.719498   -0.180478 H        1 UNL1     0.0741
     69 H         -1.908129   -2.156971   -0.019442 H        1 UNL1     0.0359
     70 H         -0.844961   -2.558632   1.906137 H        1 UNL1     0.0600
     71 H         0.784572   -1.175848   1.535674 H        1 UNL1     0.0348
     72 H         0.312425   -0.516051   3.832147 H        1 UNL1     0.0602
     73 H         -4.131432   1.843301   3.702005 H        1 UNL1     0.0628
     74 H         -4.038051   -0.919698   5.050242 H        1 UNL1     0.1022
     75 H         5.00779   5.178079   8.933532 H        1 UNL1     0.0279
     76 H         4.136843   6.598044   9.355964 H        1 UNL1     0.0279
     77 H         4.571014   5.341406   10.583829 H        1 UNL1     0.0279
     78 H         2.080918   7.059456   8.644654 H        1 UNL1     0.1553
     79 H         2.375799   6.202697   6.882487 H        1 UNL1     0.1484
     80 H         0.520999   5.74667   3.597483 H        1 UNL1     0.0317
     81 H         -0.142321   6.660685   4.94452 H        1 UNL1     0.0317
     82 H         2.10557   7.650429   5.455498 H        1 UNL1     0.0428
     83 H         1.583246   7.968645   3.816102 H        1 UNL1     0.0428
     84 H         4.375912   4.802328   4.343919 H        1 UNL1     0.0428
     85 H         3.905351   5.657578   5.770889 H        1 UNL1     0.0428
     86 H         2.778551   3.474054   5.337991 H        1 UNL1     0.0317
     87 H         2.118812   3.995203   3.856269 H        1 UNL1     0.0317
     88 H         3.921228   7.732828   2.551274 H        1 UNL1     0.0429
     89 H         4.150809   8.299804   4.207193 H        1 UNL1     0.0429
     90 H         6.23024   7.315726   3.049351 H        1 UNL1     0.0308
     91 H         5.261438   6.776582   5.757714 H        1 UNL1     0.0233
     92 H         6.264907   5.422407   5.179134 H        1 UNL1     0.0233
     93 H         6.919616   7.045048   5.233851 H        1 UNL1     0.0233
     94 H         5.350256   5.592863   1.737385 H        1 UNL1     0.0233
     95 H         6.318277   4.795279   2.986835 H        1 UNL1     0.0233
     96 H         4.543802   4.806072   3.109772 H        1 UNL1     0.0233
     97 H         -6.142721   4.736176   9.453037 H        1 UNL1     0.0280
     98 H         -5.917191   3.015512   9.613166 H        1 UNL1     0.0280
     99 H         -5.433644   4.101775   10.949558 H        1 UNL1     0.0280
     100 H         -2.618268   6.099792   11.256358 H        1 UNL1     0.2922
     101 H         1.861369   -0.952202   6.685889 H        1 UNL1     0.0236
     102 H         2.590721   -1.274962   5.064182 H        1 UNL1     0.0236
     103 H         0.922445   -1.628577   5.391762 H        1 UNL1     0.0236
     104 H         2.871991   0.252945   3.60128 H        1 UNL1     0.2098
     105 H         -1.159815   0.954784   0.868334 H        1 UNL1     0.0234
     106 H         0.59145   1.306176   0.894648 H        1 UNL1     0.0234
     107 H         0.0   0.0   0.0 H        1 UNL1     0.0234
     108 H         -1.547749   -2.307742   3.766422 H        1 UNL1     0.2098
     109 H         -1.718359   1.624995   1.884098 H        1 UNL1     0.0234
     110 H         -2.705256   2.758757   0.907666 H        1 UNL1     0.0234
     111 H         -3.112788   2.442718   2.557781 H        1 UNL1     0.0234
     112 H         0.195047   -1.50501   -1.314158 H        1 UNL1     0.0342
     113 H         -1.023957   -1.462752   0.0089 H        1 UNL1     0.0342
     114 H         -1.310875   -2.43132   -1.439383 H        1 UNL1     0.0342
     115 H         -4.511516   -2.525951   0.413276 H        1 UNL1     0.0234
     116 H         -3.278871   -3.784987   0.540551 H        1 UNL1     0.0234
     117 H         -3.93784   -2.944036   1.959074 H        1 UNL1     0.0234
     118 H         -4.721645   4.162031   5.776681 H        1 UNL1     0.0309
     119 H         -4.349074   3.101121   4.382507 H        1 UNL1     0.0309
     120 H         -5.816522   2.910503   5.31654 H        1 UNL1     0.0309
     121 H         -6.062736   -1.483777   3.987885 H        1 UNL1     0.0524
     122 H         -6.759915   -1.052808   2.42102 H        1 UNL1     0.0524
     123 H         -6.056338   -2.672399   2.656921 H        1 UNL1     0.0524
@<TRIPOS>BOND
     1     1     2    1
     2     1    42    1
     3     2     3    2
     4     3     4    1
     5     4     5    2
     6     5     7    1
     7     6    75    1
     8     6    76    1
     9     6    77    1
    10     7     9   am
    11     9    10    1
    12    10    11    2
    13    10    43    1
    14    11    14    1
    15    11    15    1
    16    12    13   ar
    17    12    27   ar
    18    12    43    1
    19    13    14    1
    20    13    30   ar
    21    14    17    2
    22    15    16    1
    23    16    17    1
    24    16    18    1
    25    16    22    1
    26    18    19    1
    27    19    20    1
    28    20    21    1
    29    21    22    1
    30    23    24    1
    31    23    88    1
    32    23    89    1
    33    24    25    1
    34    24    26    1
    35    24    90    1
    36    25    91    1
    37    25    92    1
    38    25    93    1
    39    26    94    1
    40    26    95    1
    41    26    96    1
    42    27    28   ar
    43    28    29   ar
    44    29    30   ar
    45    29    31    1
    46    30    33    1
    47    31    32    1
    48    32    33    1
    49    32    35    1
    50    34    97    1
    51    34    98    1
    52    34    99    1
    53    35    61    1
    54    36    37    1
    55    36    60    1
    56    37    38    1
    57    38    39    1
    58    39    40    1
    59    40    41    1
    60    41    42    1
    61    45   100    1
    62    47   101    1
    63    47   102    1
    64    47   103    1
    65    48   104    1
    66    49   105    1
    67    49   106    1
    68    49   107    1
    69    50   108    1
    70    51    59    1
    71    52   109    1
    72    52   110    1
    73    52   111    1
    74    53    54    1
    75    54    55    2
    76    54    56    1
    77    56   112    1
    78    56   113    1
    79    56   114    1
    80    57   115    1
    81    57   116    1
    82    57   117    1
    83    58   118    1
    84    58   119    1
    85    58   120    1
    86    59   121    1
    87    59   122    1
    88    59   123    1
    89    60    61    2
    90     1    47    1
    91     1    62    1
    92     2    63    1
    93     3    64    1
    94     4    65    1
    95     5     6    1
    96     7     8    2
    97     9    78    1
    98    15    79    1
    99    18    80    1
   100    18    81    1
   101    19    82    1
   102    19    83    1
   103    20    23    1
   104    21    84    1
   105    21    85    1
   106    22    86    1
   107    22    87    1
   108    27    45    1
   109    28    34    1
   110    32    58    1
   111    33    46    2
   112    36    51    1
   113    36    66    1
   114    37    52    1
   115    37    67    1
   116    38    53    1
   117    38    68    1
   118    42    48    1
   119    42    72    1
   120    43    44    2
   121    60    73    1
   122    61    74    1
   123    39    69    1
   124    39    57    1
   125    40    70    1
   126    40    50    1
   127    41    71    1
   128    41    49    1
