@<TRIPOS>MOLECULE
*****
 123 128 0 0 0
SMALL
GASTEIGER

@<TRIPOS>ATOM
     1 C         -0.487419   -2.77382   -4.698947 C.3        1 UNL1     0.0009
     2 C         -0.906691   -4.400133   -5.484029 C.2        1 UNL1     -0.0787
     3 C         -0.489711   -5.63967   -6.105093 C.2        1 UNL1     -0.0649
     4 C         -1.458292   -6.948564   -6.568779 C.2        1 UNL1     -0.0542
     5 C         -1.470002   -8.329174   -6.886359 C.2        1 UNL1     0.0115
     6 C         -0.56713   -9.558102   -7.182808 C.3        1 UNL1     -0.0348
     7 C         -2.865312   -9.122249   -6.85273 C.2        1 UNL1     0.2441
     8 O         -3.491363   -9.410562   -7.863405 O.2        1 UNL1     -0.2702
     9 N         -3.189612   -9.691112   -5.608795 N.am        1 UNL1     -0.2772
     10 C         -3.872654   -8.785419   -4.830016 C.2        1 UNL1     0.1049
     11 C         -3.133925   -7.91522   -4.165745 C.2        1 UNL1     0.0801
     12 C         -5.791503   -7.181229   -4.873934 C.ar        1 UNL1     0.0753
     13 C         -4.887197   -6.206783   -4.343563 C.ar        1 UNL1     0.0305
     14 C         -3.563668   -6.580027   -3.849588 C.2        1 UNL1     0.0924
     15 N         -1.806755   -7.892113   -3.954528 N.pl3        1 UNL1     -0.3170
     16 C         -1.528126   -6.829401   -3.025407 C.3        1 UNL1     0.1275
     17 N         -2.643811   -5.836306   -3.241584 N.2        1 UNL1     -0.2557
     18 C         -1.728228   -7.392165   -1.621499 C.3        1 UNL1     0.0016
     19 C         -0.842877   -8.617309   -1.457901 C.3        1 UNL1     0.0026
     20 N         0.543119   -8.224861   -1.672443 N.3        1 UNL1     -0.3018
     21 C         0.822271   -7.615203   -2.974273 C.3        1 UNL1     0.0026
     22 C         -0.074482   -6.384026   -3.115456 C.3        1 UNL1     0.0016
     23 C         1.488289   -9.239172   -1.249987 C.3        1 UNL1     0.0012
     24 C         1.507163   -9.352953   0.28248 C.3        1 UNL1     -0.0339
     25 C         1.602104   -10.818893   0.736422 C.3        1 UNL1     -0.0615
     26 C         2.639456   -8.516688   0.852876 C.3        1 UNL1     -0.0615
     27 C         -7.093755   -6.838847   -5.230347 C.ar        1 UNL1     0.1347
     28 C         -7.615706   -5.568231   -5.065563 C.ar        1 UNL1     0.0342
     29 C         -6.692413   -4.614201   -4.587525 C.ar        1 UNL1     0.1435
     30 C         -5.37426   -4.934633   -4.260391 C.ar        1 UNL1     0.0774
     31 O         -7.076998   -3.358668   -4.27013 O.3        1 UNL1     -0.4436
     32 C         -6.037495   -2.867349   -3.41053 C.3        1 UNL1     0.3143
     33 C         -4.817315   -3.699836   -3.748673 C.2        1 UNL1     0.2504
     34 C         -9.065021   -5.18777   -5.187356 C.3        1 UNL1     -0.0327
     35 O         -5.75038   -1.522947   -3.814756 O.2        1 UNL1     -0.4528
     36 C         -4.597813   0.282316   -0.680956 C.3        1 UNL1     0.0854
     37 C         -3.404382   -0.068156   0.288794 C.3        1 UNL1     0.0236
     38 C         -2.348508   1.117099   0.516929 C.3        1 UNL1     0.1131
     39 C         -1.720218   1.859785   -0.730443 C.3        1 UNL1     0.0200
     40 C         -1.199779   0.9919   -2.056473 C.3        1 UNL1     0.0661
     41 C         -0.183482   -0.365797   -2.018942 C.3        1 UNL1     0.0091
     42 C         -0.121278   -1.836344   -3.113942 C.3        1 UNL1     0.0661
     43 C         -5.325037   -8.58805   -4.94826 C.2        1 UNL1     0.2131
     44 O         -6.076799   -9.544706   -4.997256 O.2        1 UNL1     -0.2851
     45 O         -7.895149   -7.836477   -5.781654 O.3        1 UNL1     -0.5056
     46 O         -3.648672   -3.402319   -3.64092 O.2        1 UNL1     -0.2836
     47 C         -0.038984   -1.753169   -5.779298 C.3        1 UNL1     -0.0566
     48 O         1.350386   -1.785205   -3.289177 O.3        1 UNL1     -0.3909
     49 C         -0.096647   -0.871187   -0.59608 C.3        1 UNL1     -0.0577
     50 O         -2.263034   0.774659   -2.962022 O.3        1 UNL1     -0.3910
     51 O         -4.499882   1.515032   -1.357899 O.3        1 UNL1     -0.3753
     52 C         -2.960893   -1.561115   0.149718 C.3        1 UNL1     -0.0564
     53 O         -1.438594   0.893432   1.689258 O.3        1 UNL1     -0.4608
     54 C         -0.112171   1.233574   1.74252 C.2        1 UNL1     0.3042
     55 O         0.837771   0.61258   1.26732 O.2        1 UNL1     -0.2512
     56 C         0.144579   2.549018   2.421048 C.3        1 UNL1     0.0332
     57 C         -2.588683   3.176475   -0.995532 C.3        1 UNL1     -0.0567
     58 C         -6.476929   -3.191083   -1.963594 C.3        1 UNL1     0.0210
     59 C         -5.396106   2.524963   -0.89672 C.3        1 UNL1     0.0372
     60 C         -4.895464   -0.750351   -1.710598 C.2        1 UNL1     -0.0208
     61 C         -5.145856   -0.624012   -3.014472 C.2        1 UNL1     0.0882
     62 H         -1.557217   -2.601223   -4.530262 H        1 UNL1     0.0365
     63 H         -1.996913   -4.341259   -5.504516 H        1 UNL1     0.0576
     64 H         0.564641   -5.91381   -6.184441 H        1 UNL1     0.0615
     65 H         -2.474601   -6.54715   -6.530488 H        1 UNL1     0.0622
     66 H         -5.481476   0.320745   -0.028492 H        1 UNL1     0.0645
     67 H         -3.878033   -0.134654   1.283677 H        1 UNL1     0.0362
     68 H         -3.005056   1.858343   0.99758 H        1 UNL1     0.0741
     69 H         -0.821044   2.371531   -0.414199 H        1 UNL1     0.0359
     70 H         -0.568794   1.756316   -2.549004 H        1 UNL1     0.0600
     71 H         0.80176   0.127001   -2.134727 H        1 UNL1     0.0348
     72 H         -0.661228   -1.061441   -3.677231 H        1 UNL1     0.0602
     73 H         -5.01699   -1.692152   -1.235741 H        1 UNL1     0.0628
     74 H         -4.989681   0.291185   -3.586539 H        1 UNL1     0.1022
     75 H         0.226937   -9.292062   -7.921534 H        1 UNL1     0.0279
     76 H         0.010769   -9.948172   -6.347974 H        1 UNL1     0.0279
     77 H         -1.10021   -10.358612   -7.71639 H        1 UNL1     0.0279
     78 H         -2.335877   -9.938949   -5.113023 H        1 UNL1     0.1553
     79 H         -1.21232   -8.693953   -4.057642 H        1 UNL1     0.1484
     80 H         -1.479157   -6.617015   -0.88674 H        1 UNL1     0.0317
     81 H         -2.777076   -7.658708   -1.452607 H        1 UNL1     0.0317
     82 H         -1.135973   -9.425922   -2.143577 H        1 UNL1     0.0428
     83 H         -1.002502   -9.003658   -0.450774 H        1 UNL1     0.0428
     84 H         1.851199   -7.257356   -3.079454 H        1 UNL1     0.0428
     85 H         0.704715   -8.334786   -3.796281 H        1 UNL1     0.0428
     86 H         0.249399   -5.891349   -4.013431 H        1 UNL1     0.0317
     87 H         0.160379   -5.657139   -2.328328 H        1 UNL1     0.0317
     88 H         1.165811   -10.201772   -1.667963 H        1 UNL1     0.0429
     89 H         2.492517   -9.037497   -1.644484 H        1 UNL1     0.0429
     90 H         0.583469   -8.921556   0.686087 H        1 UNL1     0.0308
     91 H         2.564254   -11.259697   0.458824 H        1 UNL1     0.0233
     92 H         1.470281   -10.897641   1.818101 H        1 UNL1     0.0233
     93 H         0.823104   -11.446556   0.286939 H        1 UNL1     0.0233
     94 H         2.878889   -8.848047   1.869099 H        1 UNL1     0.0233
     95 H         3.537043   -8.635012   0.239444 H        1 UNL1     0.0233
     96 H         2.373639   -7.456487   0.888723 H        1 UNL1     0.0233
     97 H         -9.448283   -4.744988   -4.272869 H        1 UNL1     0.0280
     98 H         -9.232278   -4.441966   -5.975428 H        1 UNL1     0.0280
     99 H         -9.664192   -6.0847   -5.414529 H        1 UNL1     0.0280
     100 H         -7.492612   -8.319856   -6.481605 H        1 UNL1     0.2922
     101 H         -0.83999   -1.037724   -5.964188 H        1 UNL1     0.0236
     102 H         0.307444   -2.22567   -6.697837 H        1 UNL1     0.0236
     103 H         0.812193   -1.139033   -5.440878 H        1 UNL1     0.0236
     104 H         1.607119   -0.844581   -3.354639 H        1 UNL1     0.2098
     105 H         -0.977296   -1.410624   -0.256556 H        1 UNL1     0.0234
     106 H         0.805301   -1.439344   -0.368891 H        1 UNL1     0.0234
     107 H         0.0   0.0   0.0 H        1 UNL1     0.0234
     108 H         -1.973404   0.084444   -3.589306 H        1 UNL1     0.2098
     109 H         -3.771666   -2.260637   0.396756 H        1 UNL1     0.0234
     110 H         -2.559644   -1.800404   -0.84098 H        1 UNL1     0.0234
     111 H         -2.138789   -1.804703   0.835834 H        1 UNL1     0.0234
     112 H         1.216221   2.769991   2.411095 H        1 UNL1     0.0342
     113 H         -0.425805   3.360175   1.971016 H        1 UNL1     0.0342
     114 H         -0.17154   2.461639   3.469666 H        1 UNL1     0.0342
     115 H         -1.974267   3.999082   -1.386684 H        1 UNL1     0.0234
     116 H         -3.41906   3.028469   -1.688797 H        1 UNL1     0.0234
     117 H         -2.991326   3.630827   -0.073911 H        1 UNL1     0.0234
     118 H         -6.741714   -2.281034   -1.397284 H        1 UNL1     0.0309
     119 H         -7.311323   -3.897993   -1.915984 H        1 UNL1     0.0309
     120 H         -5.670534   -3.633272   -1.368362 H        1 UNL1     0.0309
     121 H         -5.569421   3.214155   -1.722755 H        1 UNL1     0.0524
     122 H         -6.374033   2.111915   -0.598244 H        1 UNL1     0.0524
     123 H         -4.963955   3.053647   -0.051834 H        1 UNL1     0.0524
@<TRIPOS>BOND
     1     1     2    1
     2     1    42    1
     3     2     3    2
     4     3     4    1
     5     4     5    2
     6     5     7    1
     7     6    75    1
     8     6    76    1
     9     6    77    1
    10     7     9   am
    11     9    10    1
    12    10    11    2
    13    10    43    1
    14    11    14    1
    15    11    15    1
    16    12    13   ar
    17    12    27   ar
    18    12    43    1
    19    13    14    1
    20    13    30   ar
    21    14    17    2
    22    15    16    1
    23    16    17    1
    24    16    18    1
    25    16    22    1
    26    18    19    1
    27    19    20    1
    28    20    21    1
    29    21    22    1
    30    23    24    1
    31    23    88    1
    32    23    89    1
    33    24    25    1
    34    24    26    1
    35    24    90    1
    36    25    91    1
    37    25    92    1
    38    25    93    1
    39    26    94    1
    40    26    95    1
    41    26    96    1
    42    27    28   ar
    43    28    29   ar
    44    29    30   ar
    45    29    31    1
    46    30    33    1
    47    31    32    1
    48    32    33    1
    49    32    35    1
    50    34    97    1
    51    34    98    1
    52    34    99    1
    53    35    61    1
    54    36    37    1
    55    36    60    1
    56    37    38    1
    57    38    39    1
    58    39    40    1
    59    40    41    1
    60    41    42    1
    61    45   100    1
    62    47   101    1
    63    47   102    1
    64    47   103    1
    65    48   104    1
    66    49   105    1
    67    49   106    1
    68    49   107    1
    69    50   108    1
    70    51    59    1
    71    52   109    1
    72    52   110    1
    73    52   111    1
    74    53    54    1
    75    54    55    2
    76    54    56    1
    77    56   112    1
    78    56   113    1
    79    56   114    1
    80    57   115    1
    81    57   116    1
    82    57   117    1
    83    58   118    1
    84    58   119    1
    85    58   120    1
    86    59   121    1
    87    59   122    1
    88    59   123    1
    89    60    61    2
    90     1    47    1
    91     1    62    1
    92     2    63    1
    93     3    64    1
    94     4    65    1
    95     5     6    1
    96     7     8    2
    97     9    78    1
    98    15    79    1
    99    18    80    1
   100    18    81    1
   101    19    82    1
   102    19    83    1
   103    20    23    1
   104    21    84    1
   105    21    85    1
   106    22    86    1
   107    22    87    1
   108    27    45    1
   109    28    34    1
   110    32    58    1
   111    33    46    2
   112    36    51    1
   113    36    66    1
   114    37    52    1
   115    37    67    1
   116    38    53    1
   117    38    68    1
   118    42    48    1
   119    42    72    1
   120    43    44    2
   121    60    73    1
   122    61    74    1
   123    39    69    1
   124    39    57    1
   125    40    70    1
   126    40    50    1
   127    41    71    1
   128    41    49    1
