@<TRIPOS>MOLECULE
*****
 123 128 0 0 0
SMALL
GASTEIGER

@<TRIPOS>ATOM
     1 C         1.606745   -2.313832   3.014278 C.3        1 UNL1     0.0009
     2 C         2.068528   -1.780749   4.72881 C.2        1 UNL1     -0.0787
     3 C         3.063133   -1.327279   5.67811 C.2        1 UNL1     -0.0649
     4 C         2.823837   -0.832454   7.279436 C.2        1 UNL1     -0.0542
     5 C         3.370511   -0.101138   8.362673 C.2        1 UNL1     0.0115
     6 C         4.648166   0.618585   8.87543 C.3        1 UNL1     -0.0348
     7 C         2.402758   0.353776   9.55996 C.2        1 UNL1     0.2441
     8 O         2.363281   -0.221551   10.638833 O.2        1 UNL1     -0.2702
     9 N         1.796139   1.609396   9.382247 N.am        1 UNL1     -0.2772
     10 C         0.612308   1.477586   8.693413 C.2        1 UNL1     0.1049
     11 C         0.708656   1.410991   7.377926 C.2        1 UNL1     0.0801
     12 C         -1.517541   0.166683   8.642338 C.ar        1 UNL1     0.0753
     13 C         -1.256853   -0.053707   7.252346 C.ar        1 UNL1     0.0305
     14 C         -0.203025   0.672228   6.546998 C.2        1 UNL1     0.0924
     15 N         1.757311   1.659967   6.574894 N.pl3        1 UNL1     -0.3170
     16 C         1.290943   1.609182   5.214682 C.3        1 UNL1     0.1275
     17 N         0.111113   0.668901   5.254623 N.2        1 UNL1     -0.2557
     18 C         0.724422   2.985493   4.879236 C.3        1 UNL1     0.0016
     19 C         1.799409   4.029614   5.135757 C.3        1 UNL1     0.0026
     20 N         2.956675   3.72302   4.306442 N.3        1 UNL1     -0.3018
     21 C         3.535277   2.393831   4.51343 C.3        1 UNL1     0.0026
     22 C         2.439531   1.360545   4.245934 C.3        1 UNL1     0.0016
     23 C         3.912843   4.81068   4.248285 C.3        1 UNL1     0.0012
     24 C         3.293145   6.102867   4.803248 C.3        1 UNL1     -0.0339
     25 C         3.353336   6.14092   6.339147 C.3        1 UNL1     -0.0615
     26 C         3.973231   7.31304   4.187014 C.3        1 UNL1     -0.0615
     27 C         -2.599247   -0.437744   9.278496 C.ar        1 UNL1     0.1347
     28 C         -3.508867   -1.24768   8.622259 C.ar        1 UNL1     0.0342
     29 C         -3.204312   -1.489627   7.26584 C.ar        1 UNL1     0.1435
     30 C         -2.103872   -0.919989   6.624151 C.ar        1 UNL1     0.0774
     31 O         -4.052959   -2.16828   6.463198 O.3        1 UNL1     -0.4436
     32 C         -3.659619   -1.806296   5.13086 C.3        1 UNL1     0.3143
     33 C         -2.215088   -1.364455   5.250525 C.2        1 UNL1     0.2504
     34 C         -4.823933   -1.723665   9.173745 C.3        1 UNL1     -0.0327
     35 O         -3.665711   -3.004225   4.344616 O.2        1 UNL1     -0.4528
     36 C         -4.504093   -1.921241   0.80451 C.3        1 UNL1     0.0854
     37 C         -3.762013   -0.882554   -0.121757 C.3        1 UNL1     0.0236
     38 C         -3.313856   -1.45219   -1.552286 C.3        1 UNL1     0.1131
     39 C         -2.498296   -2.804865   -1.638315 C.3        1 UNL1     0.0200
     40 C         -1.244267   -3.104119   -0.579875 C.3        1 UNL1     0.0661
     41 C         0.035522   -2.046674   -0.23122 C.3        1 UNL1     0.0091
     42 C         0.988685   -1.801698   1.316963 C.3        1 UNL1     0.0661
     43 C         -0.650068   1.131066   9.363251 C.2        1 UNL1     0.2131
     44 O         -0.980148   1.695988   10.390212 O.2        1 UNL1     -0.2851
     45 O         -2.755756   -0.207343   10.643728 O.3        1 UNL1     -0.5056
     46 O         -1.345924   -1.393641   4.408174 O.2        1 UNL1     -0.2836
     47 C         2.11376   -3.755811   2.742958 C.3        1 UNL1     -0.0566
     48 O         2.309522   -1.835741   0.643652 O.3        1 UNL1     -0.3909
     49 C         -0.309692   -0.671997   -0.759032 C.3        1 UNL1     -0.0577
     50 O         -1.724391   -3.691365   0.612747 O.3        1 UNL1     -0.3910
     51 O         -4.527747   -3.252615   0.341567 O.3        1 UNL1     -0.3753
     52 C         -2.861355   0.093452   0.703577 C.3        1 UNL1     -0.0564
     53 O         -2.937017   -0.381322   -2.533898 O.3        1 UNL1     -0.4608
     54 C         -2.994658   -0.497251   -3.898144 C.2        1 UNL1     0.3042
     55 O         -2.754519   -1.49726   -4.573535 O.2        1 UNL1     -0.2512
     56 C         -3.462434   0.75219   -4.588649 C.3        1 UNL1     0.0332
     57 C         -3.546016   -3.983608   -1.904816 C.3        1 UNL1     -0.0567
     58 C         -4.523521   -0.585906   4.736079 C.3        1 UNL1     0.0210
     59 C         -5.451439   -4.105498   1.016288 C.3        1 UNL1     0.0372
     60 C         -4.022665   -1.964751   2.212166 C.2        1 UNL1     -0.0208
     61 C         -3.74881   -3.005198   3.000339 C.2        1 UNL1     0.0882
     62 H         0.564814   -2.40532   3.344005 H        1 UNL1     0.0365
     63 H         1.120948   -1.930084   5.250597 H        1 UNL1     0.0576
     64 H         4.087062   -1.102779   5.371065 H        1 UNL1     0.0615
     65 H         1.809804   -1.171418   7.508176 H        1 UNL1     0.0622
     66 H         -5.540388   -1.558026   0.851565 H        1 UNL1     0.0645
     67 H         -4.551911   -0.166636   -0.408257 H        1 UNL1     0.0362
     68 H         -4.303104   -1.680379   -1.977541 H        1 UNL1     0.0741
     69 H         -2.011792   -2.857172   -2.603192 H        1 UNL1     0.0359
     70 H         -0.739013   -3.932603   -1.112222 H        1 UNL1     0.0600
     71 H         0.776994   -2.386938   -0.980485 H        1 UNL1     0.0348
     72 H         0.512318   -2.788747   1.407096 H        1 UNL1     0.0602
     73 H         -4.027609   -0.981823   2.613509 H        1 UNL1     0.0628
     74 H         -3.666427   -4.036083   2.654323 H        1 UNL1     0.1022
     75 H         5.441424   0.616502   8.089446 H        1 UNL1     0.0279
     76 H         4.549375   1.67701   9.105749 H        1 UNL1     0.0279
     77 H         5.147199   0.071318   9.68855 H        1 UNL1     0.0279
     78 H         2.406319   2.209072   8.830752 H        1 UNL1     0.1553
     79 H         2.558937   2.194519   6.855221 H        1 UNL1     0.1484
     80 H         0.400552   2.993136   3.831469 H        1 UNL1     0.0317
     81 H         -0.163423   3.201029   5.483328 H        1 UNL1     0.0317
     82 H         2.075901   4.076481   6.199368 H        1 UNL1     0.0428
     83 H         1.373791   5.003498   4.891933 H        1 UNL1     0.0428
     84 H         4.351865   2.15865   3.82373 H        1 UNL1     0.0428
     85 H         3.990383   2.296594   5.50879 H        1 UNL1     0.0428
     86 H         2.929216   0.404876   4.275834 H        1 UNL1     0.0317
     87 H         2.097182   1.437893   3.206746 H        1 UNL1     0.0317
     88 H         4.775323   4.540911   4.871701 H        1 UNL1     0.0429
     89 H         4.287603   4.957996   3.227194 H        1 UNL1     0.0429
     90 H         2.242888   6.159422   4.49345 H        1 UNL1     0.0308
     91 H         4.325942   5.801242   6.707602 H        1 UNL1     0.0233
     92 H         3.162965   7.151419   6.70828 H        1 UNL1     0.0233
     93 H         2.595305   5.498113   6.802853 H        1 UNL1     0.0233
     94 H         4.485128   7.893942   4.961837 H        1 UNL1     0.0233
     95 H         4.721736   6.990116   3.458027 H        1 UNL1     0.0233
     96 H         3.251437   7.964744   3.68675 H        1 UNL1     0.0233
     97 H         -4.878629   -2.807275   9.218787 H        1 UNL1     0.0280
     98 H         -4.99445   -1.371255   10.19941 H        1 UNL1     0.0280
     99 H         -5.645145   -1.362542   8.533201 H        1 UNL1     0.0280
     100 H         -3.648789   -0.112043   10.924857 H        1 UNL1     0.2922
     101 H         2.358769   -3.866773   1.686874 H        1 UNL1     0.0236
     102 H         1.422182   -4.524877   3.085361 H        1 UNL1     0.0236
     103 H         3.056856   -3.969794   3.273029 H        1 UNL1     0.0236
     104 H         2.15425   -1.733572   -0.315735 H        1 UNL1     0.2098
     105 H         0.207621   -0.399905   -1.675637 H        1 UNL1     0.0234
     106 H         -1.377531   -0.476204   -0.855535 H        1 UNL1     0.0234
     107 H         0.0   0.0   0.0 H        1 UNL1     0.0234
     108 H         -1.25483   -3.265145   1.355456 H        1 UNL1     0.2098
     109 H         -3.189605   1.138422   0.614129 H        1 UNL1     0.0234
     110 H         -2.789298   -0.178648   1.76212 H        1 UNL1     0.0234
     111 H         -1.820695   0.077769   0.353255 H        1 UNL1     0.0234
     112 H         -4.015841   1.381367   -3.884929 H        1 UNL1     0.0342
     113 H         -2.63904   1.302869   -5.040997 H        1 UNL1     0.0342
     114 H         -4.150946   0.461789   -5.394119 H        1 UNL1     0.0342
     115 H         -3.481562   -4.362326   -2.934188 H        1 UNL1     0.0234
     116 H         -3.434211   -4.837191   -1.233293 H        1 UNL1     0.0234
     117 H         -4.598518   -3.654131   -1.864486 H        1 UNL1     0.0234
     118 H         -4.264222   -0.20106   3.734249 H        1 UNL1     0.0309
     119 H         -5.59828   -0.789962   4.774222 H        1 UNL1     0.0309
     120 H         -4.355361   0.277165   5.389484 H        1 UNL1     0.0309
     121 H         -4.903798   -4.632365   1.797221 H        1 UNL1     0.0524
     122 H         -6.263385   -3.540483   1.503668 H        1 UNL1     0.0524
     123 H         -5.885745   -4.815888   0.318563 H        1 UNL1     0.0524
@<TRIPOS>BOND
     1     1     2    1
     2     1    42    1
     3     2     3    2
     4     3     4    1
     5     4     5    2
     6     5     7    1
     7     6    75    1
     8     6    76    1
     9     6    77    1
    10     7     9   am
    11     9    10    1
    12    10    11    2
    13    10    43    1
    14    11    14    1
    15    11    15    1
    16    12    13   ar
    17    12    27   ar
    18    12    43    1
    19    13    14    1
    20    13    30   ar
    21    14    17    2
    22    15    16    1
    23    16    17    1
    24    16    18    1
    25    16    22    1
    26    18    19    1
    27    19    20    1
    28    20    21    1
    29    21    22    1
    30    23    24    1
    31    23    88    1
    32    23    89    1
    33    24    25    1
    34    24    26    1
    35    24    90    1
    36    25    91    1
    37    25    92    1
    38    25    93    1
    39    26    94    1
    40    26    95    1
    41    26    96    1
    42    27    28   ar
    43    28    29   ar
    44    29    30   ar
    45    29    31    1
    46    30    33    1
    47    31    32    1
    48    32    33    1
    49    32    35    1
    50    34    97    1
    51    34    98    1
    52    34    99    1
    53    35    61    1
    54    36    37    1
    55    36    60    1
    56    37    38    1
    57    38    39    1
    58    39    40    1
    59    40    41    1
    60    41    42    1
    61    45   100    1
    62    47   101    1
    63    47   102    1
    64    47   103    1
    65    48   104    1
    66    49   105    1
    67    49   106    1
    68    49   107    1
    69    50   108    1
    70    51    59    1
    71    52   109    1
    72    52   110    1
    73    52   111    1
    74    53    54    1
    75    54    55    2
    76    54    56    1
    77    56   112    1
    78    56   113    1
    79    56   114    1
    80    57   115    1
    81    57   116    1
    82    57   117    1
    83    58   118    1
    84    58   119    1
    85    58   120    1
    86    59   121    1
    87    59   122    1
    88    59   123    1
    89    60    61    2
    90     1    47    1
    91     1    62    1
    92     2    63    1
    93     3    64    1
    94     4    65    1
    95     5     6    1
    96     7     8    2
    97     9    78    1
    98    15    79    1
    99    18    80    1
   100    18    81    1
   101    19    82    1
   102    19    83    1
   103    20    23    1
   104    21    84    1
   105    21    85    1
   106    22    86    1
   107    22    87    1
   108    27    45    1
   109    28    34    1
   110    32    58    1
   111    33    46    2
   112    36    51    1
   113    36    66    1
   114    37    52    1
   115    37    67    1
   116    38    53    1
   117    38    68    1
   118    42    48    1
   119    42    72    1
   120    43    44    2
   121    60    73    1
   122    61    74    1
   123    39    69    1
   124    39    57    1
   125    40    70    1
   126    40    50    1
   127    41    71    1
   128    41    49    1
