@<TRIPOS>MOLECULE
*****
 123 128 0 0 0
SMALL
GASTEIGER

@<TRIPOS>ATOM
     1 C         5.164887   1.753394   0.500358 C.3        1 UNL1     0.0009
     2 C         6.601055   2.563855   -0.346763 C.2        1 UNL1     -0.0787
     3 C         7.883838   2.46936   -1.011281 C.2        1 UNL1     -0.0649
     4 C         8.759891   3.707631   -1.763326 C.2        1 UNL1     -0.0542
     5 C         9.780419   4.004065   -2.700198 C.2        1 UNL1     0.0115
     6 C         10.91069   3.382455   -3.565883 C.3        1 UNL1     -0.0348
     7 C         9.873754   5.488751   -3.303508 C.2        1 UNL1     0.2441
     8 O         10.695743   6.311089   -2.923217 O.2        1 UNL1     -0.2702
     9 N         9.124447   5.69681   -4.474577 N.am        1 UNL1     -0.2772
     10 C         7.840694   6.08053   -4.16143 C.2        1 UNL1     0.1049
     11 C         6.996338   5.106993   -3.872451 C.2        1 UNL1     0.0801
     12 C         6.537866   7.681902   -2.74878 C.ar        1 UNL1     0.0753
     13 C         5.780348   6.551695   -2.304477 C.ar        1 UNL1     0.0305
     14 C         5.900337   5.247554   -2.952451 C.2        1 UNL1     0.0924
     15 N         7.121523   3.778572   -4.034172 N.pl3        1 UNL1     -0.3170
     16 C         5.8524   3.176468   -3.722643 C.3        1 UNL1     0.1275
     17 N         5.213207   4.128513   -2.741436 N.2        1 UNL1     -0.2557
     18 C         5.000834   3.236639   -4.987126 C.3        1 UNL1     0.0016
     19 C         5.758183   2.556258   -6.116326 C.3        1 UNL1     0.0026
     20 N         6.03038   1.177843   -5.73304 N.3        1 UNL1     -0.3018
     21 C         6.792663   1.016238   -4.493211 C.3        1 UNL1     0.0026
     22 C         6.011447   1.70302   -3.371638 C.3        1 UNL1     0.0016
     23 C         6.477577   0.361419   -6.843945 C.3        1 UNL1     0.0012
     24 C         5.322554   0.108269   -7.825572 C.3        1 UNL1     -0.0339
     25 C         5.338087   1.118296   -8.984736 C.3        1 UNL1     -0.0615
     26 C         5.372691   -1.323195   -8.330722 C.3        1 UNL1     -0.0615
     27 C         6.330334   8.9481   -2.206753 C.ar        1 UNL1     0.1347
     28 C         5.36974   9.213925   -1.24725 C.ar        1 UNL1     0.0342
     29 C         4.669716   8.07726   -0.78995 C.ar        1 UNL1     0.1435
     30 C         4.892019   6.796684   -1.297816 C.ar        1 UNL1     0.0774
     31 O         3.627588   8.187179   0.06263 O.3        1 UNL1     -0.4436
     32 C         2.908285   6.953363   -0.082886 C.3        1 UNL1     0.3143
     33 C         3.923948   5.963189   -0.615986 C.2        1 UNL1     0.2504
     34 C         4.919963   10.578304   -0.804227 C.3        1 UNL1     -0.0327
     35 O         2.546996   6.51328   1.232047 O.2        1 UNL1     -0.4528
     36 C         -0.692134   4.5761   0.827748 C.3        1 UNL1     0.0854
     37 C         -0.994193   3.316836   -0.072551 C.3        1 UNL1     0.0236
     38 C         -1.593338   2.053081   0.712109 C.3        1 UNL1     0.1131
     39 C         -0.868046   1.52075   2.013203 C.3        1 UNL1     0.0200
     40 C         0.793359   1.378104   2.055886 C.3        1 UNL1     0.0661
     41 C         1.755383   0.613426   0.886531 C.3        1 UNL1     0.0091
     42 C         3.462929   0.98022   0.325147 C.3        1 UNL1     0.0661
     43 C         7.489501   7.478234   -3.869124 C.2        1 UNL1     0.2131
     44 O         7.888551   8.378517   -4.585355 O.2        1 UNL1     -0.2851
     45 O         7.141237   9.985613   -2.66221 O.3        1 UNL1     -0.5056
     46 O         3.941959   4.759417   -0.487684 O.2        1 UNL1     -0.2836
     47 C         5.560456   1.32165   1.9381 C.3        1 UNL1     -0.0566
     48 O         3.913939   -0.430244   0.404501 O.3        1 UNL1     -0.3909
     49 C         0.922964   0.381908   -0.354828 C.3        1 UNL1     -0.0577
     50 O         1.39094   2.596226   2.451865 O.3        1 UNL1     -0.3910
     51 O         -0.817394   4.383322   2.218639 O.3        1 UNL1     -0.3753
     52 C         0.051801   3.160627   -1.224265 C.3        1 UNL1     -0.0564
     53 O         -2.193095   1.014883   -0.190532 O.3        1 UNL1     -0.4608
     54 C         -2.413021   -0.296297   0.141686 C.2        1 UNL1     0.3042
     55 O         -1.838473   -1.287127   -0.307747 O.2        1 UNL1     -0.2512
     56 C         -3.442919   -0.47889   1.219964 C.3        1 UNL1     0.0332
     57 C         -1.591644   2.185838   3.275042 C.3        1 UNL1     -0.0567
     58 C         1.833829   7.198766   -1.167714 C.3        1 UNL1     0.0210
     59 C         -1.172118   5.552094   2.956209 C.3        1 UNL1     0.0372
     60 C         0.635979   5.208042   0.599879 C.2        1 UNL1     -0.0208
     61 C         1.547187   5.643114   1.471175 C.2        1 UNL1     0.0882
     62 H         4.687106   2.736529   0.58914 H        1 UNL1     0.0365
     63 H         6.332802   3.616955   -0.239573 H        1 UNL1     0.0576
     64 H         8.343467   1.503791   -1.233826 H        1 UNL1     0.0615
     65 H         8.27079   4.621434   -1.415149 H        1 UNL1     0.0622
     66 H         -1.437787   5.32193   0.518257 H        1 UNL1     0.0645
     67 H         -1.859633   3.625911   -0.684145 H        1 UNL1     0.0362
     68 H         -2.541571   2.487532   1.063719 H        1 UNL1     0.0741
     69 H         -1.197964   0.508658   2.206159 H        1 UNL1     0.0359
     70 H         0.905367   0.716157   2.935852 H        1 UNL1     0.0600
     71 H         1.800337   -0.408538   1.311414 H        1 UNL1     0.0348
     72 H         3.355112   1.466212   1.30571 H        1 UNL1     0.0602
     73 H         0.75464   5.407641   -0.436136 H        1 UNL1     0.0628
     74 H         1.528864   5.430212   2.540555 H        1 UNL1     0.1022
     75 H         10.956989   2.276944   -3.415096 H        1 UNL1     0.0279
     76 H         10.798074   3.467264   -4.644398 H        1 UNL1     0.0279
     77 H         11.914863   3.688286   -3.237547 H        1 UNL1     0.0279
     78 H         9.064574   4.827835   -5.001241 H        1 UNL1     0.1553
     79 H         7.788227   3.353048   -4.651723 H        1 UNL1     0.1484
     80 H         4.040226   2.743584   -4.795043 H        1 UNL1     0.0317
     81 H         4.772659   4.273541   -5.256239 H        1 UNL1     0.0317
     82 H         6.688158   3.089736   -6.36221 H        1 UNL1     0.0428
     83 H         5.133895   2.612118   -7.008624 H        1 UNL1     0.0428
     84 H         6.914521   -0.027131   -4.186059 H        1 UNL1     0.0428
     85 H         7.822205   1.386329   -4.595156 H        1 UNL1     0.0428
     86 H         6.527339   1.451713   -2.463514 H        1 UNL1     0.0317
     87 H         5.032727   1.223373   -3.248591 H        1 UNL1     0.0317
     88 H         7.271045   0.907096   -7.371146 H        1 UNL1     0.0429
     89 H         6.914316   -0.582943   -6.494355 H        1 UNL1     0.0429
     90 H         4.369757   0.204243   -7.29155 H        1 UNL1     0.0308
     91 H         6.285836   1.083064   -9.530294 H        1 UNL1     0.0233
     92 H         4.517307   0.922522   -9.678712 H        1 UNL1     0.0233
     93 H         5.207499   2.151328   -8.640313 H        1 UNL1     0.0233
     94 H         4.675792   -1.453705   -9.165669 H        1 UNL1     0.0233
     95 H         6.378298   -1.557189   -8.691227 H        1 UNL1     0.0233
     96 H         5.105703   -2.033758   -7.543457 H        1 UNL1     0.0233
     97 H         4.125917   10.525581   -0.065348 H        1 UNL1     0.0280
     98 H         5.731184   11.148838   -0.333411 H        1 UNL1     0.0280
     99 H         4.54621   11.143954   -1.673389 H        1 UNL1     0.0280
     100 H         8.064988   9.818688   -2.595561 H        1 UNL1     0.2922
     101 H         4.698285   0.884005   2.440877 H        1 UNL1     0.0236
     102 H         6.007774   2.12702   2.51971 H        1 UNL1     0.0236
     103 H         6.319285   0.52142   1.936181 H        1 UNL1     0.0236
     104 H         4.336547   -0.556157   1.276579 H        1 UNL1     0.2098
     105 H         0.712488   1.280991   -0.928553 H        1 UNL1     0.0234
     106 H         1.292382   -0.406652   -1.010291 H        1 UNL1     0.0234
     107 H         0.0   -0.0   0.0 H        1 UNL1     0.0234
     108 H         1.18956   3.256268   1.760809 H        1 UNL1     0.2098
     109 H         1.075673   3.042017   -0.843043 H        1 UNL1     0.0234
     110 H         -0.181729   2.338359   -1.909162 H        1 UNL1     0.0234
     111 H         0.076509   4.047378   -1.871574 H        1 UNL1     0.0234
     112 H         -3.567425   -1.543677   1.439218 H        1 UNL1     0.0342
     113 H         -3.195279   0.079322   2.121583 H        1 UNL1     0.0342
     114 H         -4.402941   -0.097637   0.845571 H        1 UNL1     0.0342
     115 H         -2.655377   1.915395   3.325257 H        1 UNL1     0.0234
     116 H         -1.140667   1.924137   4.234303 H        1 UNL1     0.0234
     117 H         -1.654025   3.286144   3.21693 H        1 UNL1     0.0234
     118 H         0.931438   7.683206   -0.755385 H        1 UNL1     0.0309
     119 H         2.203051   7.789147   -2.012301 H        1 UNL1     0.0309
     120 H         1.447392   6.266985   -1.594979 H        1 UNL1     0.0309
     121 H         -0.374823   6.282309   2.820329 H        1 UNL1     0.0524
     122 H         -2.106856   6.009421   2.591305 H        1 UNL1     0.0524
     123 H         -1.284906   5.311924   4.009627 H        1 UNL1     0.0524
@<TRIPOS>BOND
     1     1     2    1
     2     1    42    1
     3     2     3    2
     4     3     4    1
     5     4     5    2
     6     5     7    1
     7     6    75    1
     8     6    76    1
     9     6    77    1
    10     7     9   am
    11     9    10    1
    12    10    11    2
    13    10    43    1
    14    11    14    1
    15    11    15    1
    16    12    13   ar
    17    12    27   ar
    18    12    43    1
    19    13    14    1
    20    13    30   ar
    21    14    17    2
    22    15    16    1
    23    16    17    1
    24    16    18    1
    25    16    22    1
    26    18    19    1
    27    19    20    1
    28    20    21    1
    29    21    22    1
    30    23    24    1
    31    23    88    1
    32    23    89    1
    33    24    25    1
    34    24    26    1
    35    24    90    1
    36    25    91    1
    37    25    92    1
    38    25    93    1
    39    26    94    1
    40    26    95    1
    41    26    96    1
    42    27    28   ar
    43    28    29   ar
    44    29    30   ar
    45    29    31    1
    46    30    33    1
    47    31    32    1
    48    32    33    1
    49    32    35    1
    50    34    97    1
    51    34    98    1
    52    34    99    1
    53    35    61    1
    54    36    37    1
    55    36    60    1
    56    37    38    1
    57    38    39    1
    58    39    40    1
    59    40    41    1
    60    41    42    1
    61    45   100    1
    62    47   101    1
    63    47   102    1
    64    47   103    1
    65    48   104    1
    66    49   105    1
    67    49   106    1
    68    49   107    1
    69    50   108    1
    70    51    59    1
    71    52   109    1
    72    52   110    1
    73    52   111    1
    74    53    54    1
    75    54    55    2
    76    54    56    1
    77    56   112    1
    78    56   113    1
    79    56   114    1
    80    57   115    1
    81    57   116    1
    82    57   117    1
    83    58   118    1
    84    58   119    1
    85    58   120    1
    86    59   121    1
    87    59   122    1
    88    59   123    1
    89    60    61    2
    90     1    47    1
    91     1    62    1
    92     2    63    1
    93     3    64    1
    94     4    65    1
    95     5     6    1
    96     7     8    2
    97     9    78    1
    98    15    79    1
    99    18    80    1
   100    18    81    1
   101    19    82    1
   102    19    83    1
   103    20    23    1
   104    21    84    1
   105    21    85    1
   106    22    86    1
   107    22    87    1
   108    27    45    1
   109    28    34    1
   110    32    58    1
   111    33    46    2
   112    36    51    1
   113    36    66    1
   114    37    52    1
   115    37    67    1
   116    38    53    1
   117    38    68    1
   118    42    48    1
   119    42    72    1
   120    43    44    2
   121    60    73    1
   122    61    74    1
   123    39    69    1
   124    39    57    1
   125    40    70    1
   126    40    50    1
   127    41    71    1
   128    41    49    1
