@<TRIPOS>MOLECULE
*****
 123 128 0 0 0
SMALL
GASTEIGER

@<TRIPOS>ATOM
     1 C         3.917919   3.304136   1.935031 C.3        1 UNL1     0.0009
     2 C         5.14153   4.635807   1.527033 C.2        1 UNL1     -0.0787
     3 C         6.500277   5.050444   1.247877 C.2        1 UNL1     -0.0649
     4 C         7.044537   6.582588   0.775993 C.2        1 UNL1     -0.0542
     5 C         8.100244   7.301876   0.16347 C.2        1 UNL1     0.0115
     6 C         9.561083   7.192514   -0.353551 C.3        1 UNL1     -0.0348
     7 C         7.815473   8.783893   -0.383814 C.2        1 UNL1     0.2441
     8 O         8.163478   9.79252   0.214593 O.2        1 UNL1     -0.2702
     9 N         7.373862   8.844677   -1.71702 N.am        1 UNL1     -0.2772
     10 C         6.003358   8.736254   -1.77433 C.2        1 UNL1     0.1049
     11 C         5.514452   7.509956   -1.737087 C.2        1 UNL1     0.0801
     12 C         3.898075   9.647252   -0.776732 C.ar        1 UNL1     0.0753
     13 C         3.502183   8.287931   -0.566674 C.ar        1 UNL1     0.0305
     14 C         4.240598   7.175489   -1.160196 C.2        1 UNL1     0.0924
     15 N         6.139457   6.326663   -1.862445 N.pl3        1 UNL1     -0.3170
     16 C         5.131625   5.301434   -1.921037 C.3        1 UNL1     0.1275
     17 N         3.964749   5.874413   -1.154343 N.2        1 UNL1     -0.2557
     18 C         4.674875   5.198841   -3.373124 C.3        1 UNL1     0.0016
     19 C         5.890226   4.935158   -4.247757 C.3        1 UNL1     0.0026
     20 N         6.522996   3.699005   -3.808943 N.3        1 UNL1     -0.3018
     21 C         6.941898   3.679007   -2.405914 C.3        1 UNL1     0.0026
     22 C         5.70483   3.941369   -1.545261 C.3        1 UNL1     0.0016
     23 C         7.503187   3.201092   -4.753374 C.3        1 UNL1     0.0012
     24 C         6.811432   2.67761   -6.021916 C.3        1 UNL1     -0.0339
     25 C         7.56329   1.475806   -6.617259 C.3        1 UNL1     -0.0615
     26 C         5.361928   2.337376   -5.721986 C.3        1 UNL1     -0.0615
     27 C         3.122068   10.70541   -0.309578 C.ar        1 UNL1     0.1347
     28 C         1.915182   10.529931   0.343634 C.ar        1 UNL1     0.0342
     29 C         1.569832   9.182725   0.58224 C.ar        1 UNL1     0.1435
     30 C         2.355298   8.112621   0.15196 C.ar        1 UNL1     0.0774
     31 O         0.37278   8.844782   1.109372 O.3        1 UNL1     -0.4436
     32 C         0.20156   7.462056   0.763503 C.3        1 UNL1     0.3143
     33 C         1.603338   6.935036   0.532246 C.2        1 UNL1     0.2504
     34 C         0.912619   11.607958   0.648304 C.3        1 UNL1     -0.0327
     35 O         -0.309653   6.793079   1.922977 O.2        1 UNL1     -0.4528
     36 C         -2.427626   3.925028   0.620456 C.3        1 UNL1     0.0854
     37 C         -2.018443   2.737397   -0.333287 C.3        1 UNL1     0.0236
     38 C         -2.313462   1.271933   0.247337 C.3        1 UNL1     0.1131
     39 C         -1.812459   0.886409   1.697384 C.3        1 UNL1     0.0200
     40 C         -0.280826   1.311769   2.202959 C.3        1 UNL1     0.0661
     41 C         1.158672   1.042749   1.346756 C.3        1 UNL1     0.0091
     42 C         2.708708   2.022168   1.287322 C.3        1 UNL1     0.0661
     43 C         5.116803   9.894329   -1.586617 C.2        1 UNL1     0.2131
     44 O         5.342991   10.945032   -2.158981 O.2        1 UNL1     -0.2851
     45 O         3.60164   11.997284   -0.515756 O.3        1 UNL1     -0.5056
     46 O         2.012384   5.80222   0.655786 O.2        1 UNL1     -0.2836
     47 C         4.051551   2.886893   3.424337 C.3        1 UNL1     -0.0566
     48 O         3.592612   0.847847   1.4843 O.3        1 UNL1     -0.3909
     49 C         0.816392   0.671489   -0.078903 C.3        1 UNL1     -0.0577
     50 O         -0.278625   2.612854   2.755134 O.3        1 UNL1     -0.3910
     51 O         -2.83421   3.559535   1.919893 O.3        1 UNL1     -0.3753
     52 C         -0.723598   3.064061   -1.146684 C.3        1 UNL1     -0.0564
     53 O         -2.24934   0.190374   -0.791144 O.3        1 UNL1     -0.4608
     54 C         -2.086807   -1.146539   -0.537813 C.2        1 UNL1     0.3042
     55 O         -1.05833   -1.810475   -0.661356 O.2        1 UNL1     -0.2512
     56 C         -3.321673   -1.81102   0.000968 C.3        1 UNL1     0.0332
     57 C         -3.026635   1.133617   2.70874 C.3        1 UNL1     -0.0567
     58 C         -0.567784   7.438702   -0.5778 C.3        1 UNL1     0.0210
     59 C         -2.31293   4.380316   2.964139 C.3        1 UNL1     0.0372
     60 C         -1.399172   4.98957   0.775994 C.2        1 UNL1     -0.0208
     61 C         -0.961802   5.615878   1.869241 C.2        1 UNL1     0.0882
     62 H         3.117498   4.052493   1.89031 H        1 UNL1     0.0365
     63 H         4.499731   5.518727   1.558918 H        1 UNL1     0.0576
     64 H         7.31302   4.326091   1.159172 H        1 UNL1     0.0615
     65 H         6.190926   7.235648   0.976853 H        1 UNL1     0.0622
     66 H         -3.28085   4.401541   0.117475 H        1 UNL1     0.0645
     67 H         -2.745886   2.795865   -1.161518 H        1 UNL1     0.0362
     68 H         -3.410596   1.320731   0.321085 H        1 UNL1     0.0741
     69 H         -1.800639   -0.191718   1.786325 H        1 UNL1     0.0359
     70 H         -0.175051   0.640376   3.076517 H        1 UNL1     0.0600
     71 H         1.45027   0.058651   1.763263 H        1 UNL1     0.0348
     72 H         2.184313   2.339478   2.200361 H        1 UNL1     0.0602
     73 H         -1.09338   5.322783   -0.184584 H        1 UNL1     0.0628
     74 H         -1.181454   5.30081   2.889889 H        1 UNL1     0.1022
     75 H         10.208726   6.689978   0.40477 H        1 UNL1     0.0279
     76 H         9.717923   6.579844   -1.238484 H        1 UNL1     0.0279
     77 H         10.054155   8.171379   -0.445224 H        1 UNL1     0.0279
     78 H         7.76502   8.065781   -2.242752 H        1 UNL1     0.1553
     79 H         7.049847   6.218082   -2.270284 H        1 UNL1     0.1484
     80 H         3.936644   4.392426   -3.459585 H        1 UNL1     0.0317
     81 H         4.172841   6.118818   -3.691332 H        1 UNL1     0.0317
     82 H         6.600644   5.774516   -4.221365 H        1 UNL1     0.0428
     83 H         5.542179   4.867372   -5.27893 H        1 UNL1     0.0428
     84 H         7.340819   2.71304   -2.08098 H        1 UNL1     0.0428
     85 H         7.762107   4.384543   -2.214098 H        1 UNL1     0.0428
     86 H         6.020609   3.788009   -0.530001 H        1 UNL1     0.0317
     87 H         4.963567   3.148438   -1.703016 H        1 UNL1     0.0317
     88 H         8.161924   4.033728   -5.032796 H        1 UNL1     0.0429
     89 H         8.136789   2.427881   -4.300089 H        1 UNL1     0.0429
     90 H         6.782462   3.477457   -6.771329 H        1 UNL1     0.0308
     91 H         7.111658   1.151162   -7.559457 H        1 UNL1     0.0233
     92 H         8.613256   1.723802   -6.789534 H        1 UNL1     0.0233
     93 H         7.560124   0.607586   -5.94717 H        1 UNL1     0.0233
     94 H         4.876106   1.93261   -6.616401 H        1 UNL1     0.0233
     95 H         5.311202   1.57711   -4.937521 H        1 UNL1     0.0233
     96 H         4.804358   3.219569   -5.395155 H        1 UNL1     0.0233
     97 H         -0.055682   11.401761   0.202091 H        1 UNL1     0.0280
     98 H         0.730954   11.711529   1.726045 H        1 UNL1     0.0280
     99 H         1.276018   12.571618   0.255371 H        1 UNL1     0.0280
     100 H         4.498569   12.12707   -0.26219 H        1 UNL1     0.2922
     101 H         5.097713   2.691611   3.659 H        1 UNL1     0.0236
     102 H         3.408686   2.049736   3.694293 H        1 UNL1     0.0236
     103 H         3.757864   3.699221   4.10995 H        1 UNL1     0.0236
     104 H         3.714766   0.728723   2.446515 H        1 UNL1     0.2098
     105 H         0.500641   1.507924   -0.697361 H        1 UNL1     0.0234
     106 H         1.579976   0.0883   -0.593448 H        1 UNL1     0.0234
     107 H         0.0   -0.0   0.0 H        1 UNL1     0.0234
     108 H         0.65295   2.898548   2.820812 H        1 UNL1     0.2098
     109 H         -0.945751   3.568713   -2.097308 H        1 UNL1     0.0234
     110 H         0.003478   3.654983   -0.579308 H        1 UNL1     0.0234
     111 H         -0.173759   2.152296   -1.415587 H        1 UNL1     0.0234
     112 H         -4.198213   -1.483231   -0.566111 H        1 UNL1     0.0342
     113 H         -3.237392   -2.896711   -0.002964 H        1 UNL1     0.0342
     114 H         -3.456193   -1.491367   1.043508 H        1 UNL1     0.0342
     115 H         -3.066928   0.366053   3.493859 H        1 UNL1     0.0234
     116 H         -3.002107   2.107195   3.202293 H        1 UNL1     0.0234
     117 H         -4.019413   1.013331   2.241981 H        1 UNL1     0.0234
     118 H         -1.622815   7.141364   -0.445489 H        1 UNL1     0.0309
     119 H         -0.529021   8.393341   -1.111996 H        1 UNL1     0.0309
     120 H         -0.178598   6.686421   -1.272577 H        1 UNL1     0.0309
     121 H         -2.322851   3.792502   3.881599 H        1 UNL1     0.0524
     122 H         -1.269789   4.684454   2.776006 H        1 UNL1     0.0524
     123 H         -2.923852   5.2707   3.082814 H        1 UNL1     0.0524
@<TRIPOS>BOND
     1     1     2    1
     2     1    42    1
     3     2     3    2
     4     3     4    1
     5     4     5    2
     6     5     7    1
     7     6    75    1
     8     6    76    1
     9     6    77    1
    10     7     9   am
    11     9    10    1
    12    10    11    2
    13    10    43    1
    14    11    14    1
    15    11    15    1
    16    12    13   ar
    17    12    27   ar
    18    12    43    1
    19    13    14    1
    20    13    30   ar
    21    14    17    2
    22    15    16    1
    23    16    17    1
    24    16    18    1
    25    16    22    1
    26    18    19    1
    27    19    20    1
    28    20    21    1
    29    21    22    1
    30    23    24    1
    31    23    88    1
    32    23    89    1
    33    24    25    1
    34    24    26    1
    35    24    90    1
    36    25    91    1
    37    25    92    1
    38    25    93    1
    39    26    94    1
    40    26    95    1
    41    26    96    1
    42    27    28   ar
    43    28    29   ar
    44    29    30   ar
    45    29    31    1
    46    30    33    1
    47    31    32    1
    48    32    33    1
    49    32    35    1
    50    34    97    1
    51    34    98    1
    52    34    99    1
    53    35    61    1
    54    36    37    1
    55    36    60    1
    56    37    38    1
    57    38    39    1
    58    39    40    1
    59    40    41    1
    60    41    42    1
    61    45   100    1
    62    47   101    1
    63    47   102    1
    64    47   103    1
    65    48   104    1
    66    49   105    1
    67    49   106    1
    68    49   107    1
    69    50   108    1
    70    51    59    1
    71    52   109    1
    72    52   110    1
    73    52   111    1
    74    53    54    1
    75    54    55    2
    76    54    56    1
    77    56   112    1
    78    56   113    1
    79    56   114    1
    80    57   115    1
    81    57   116    1
    82    57   117    1
    83    58   118    1
    84    58   119    1
    85    58   120    1
    86    59   121    1
    87    59   122    1
    88    59   123    1
    89    60    61    2
    90     1    47    1
    91     1    62    1
    92     2    63    1
    93     3    64    1
    94     4    65    1
    95     5     6    1
    96     7     8    2
    97     9    78    1
    98    15    79    1
    99    18    80    1
   100    18    81    1
   101    19    82    1
   102    19    83    1
   103    20    23    1
   104    21    84    1
   105    21    85    1
   106    22    86    1
   107    22    87    1
   108    27    45    1
   109    28    34    1
   110    32    58    1
   111    33    46    2
   112    36    51    1
   113    36    66    1
   114    37    52    1
   115    37    67    1
   116    38    53    1
   117    38    68    1
   118    42    48    1
   119    42    72    1
   120    43    44    2
   121    60    73    1
   122    61    74    1
   123    39    69    1
   124    39    57    1
   125    40    70    1
   126    40    50    1
   127    41    71    1
   128    41    49    1
