@<TRIPOS>MOLECULE
*****
 123 128 0 0 0
SMALL
GASTEIGER

@<TRIPOS>ATOM
     1 C         -0.217608   -2.775757   -4.678261 C.3        1 UNL1     0.0009
     2 C         -0.511756   -4.419746   -5.483131 C.2        1 UNL1     -0.0787
     3 C         -0.001801   -5.657252   -6.03501 C.2        1 UNL1     -0.0649
     4 C         -0.884654   -6.991917   -6.587817 C.2        1 UNL1     -0.0542
     5 C         -0.832413   -8.376082   -6.885201 C.2        1 UNL1     0.0115
     6 C         0.122773   -9.58878   -7.05928 C.3        1 UNL1     -0.0348
     7 C         -2.206315   -9.198401   -6.999988 C.2        1 UNL1     0.2441
     8 O         -2.706686   -9.511853   -8.07139 O.2        1 UNL1     -0.2702
     9 N         -2.659474   -9.759487   -5.793348 N.am        1 UNL1     -0.2772
     10 C         -3.445088   -8.859577   -5.11049 C.2        1 UNL1     0.1049
     11 C         -2.804747   -7.966051   -4.378508 C.2        1 UNL1     0.0801
     12 C         -5.377887   -7.297461   -5.395825 C.ar        1 UNL1     0.0753
     13 C         -4.559841   -6.29774   -4.77941 C.ar        1 UNL1     0.0305
     14 C         -3.294383   -6.636758   -4.132313 C.2        1 UNL1     0.0924
     15 N         -1.511205   -7.912065   -4.017451 N.pl3        1 UNL1     -0.3170
     16 C         -1.362003   -6.832837   -3.077633 C.3        1 UNL1     0.1275
     17 N         -2.465179   -5.866452   -3.43376 N.2        1 UNL1     -0.2557
     18 C         -1.710239   -7.383295   -1.697985 C.3        1 UNL1     0.0016
     19 C         -0.825192   -8.587206   -1.417127 C.3        1 UNL1     0.0026
     20 N         0.568152   -8.16771   -1.477479 N.3        1 UNL1     -0.3018
     21 C         0.982283   -7.567485   -2.747359 C.3        1 UNL1     0.0026
     22 C         0.083226   -6.357525   -3.007338 C.3        1 UNL1     0.0016
     23 C         1.478778   -9.156542   -0.935617 C.3        1 UNL1     0.0012
     24 C         0.832123   -10.550573   -0.95214 C.3        1 UNL1     -0.0339
     25 C         1.148996   -11.332752   0.333101 C.3        1 UNL1     -0.0615
     26 C         -0.664914   -10.427586   -1.176938 C.3        1 UNL1     -0.0615
     27 C         -6.637345   -6.98723   -5.903409 C.ar        1 UNL1     0.1347
     28 C         -7.199948   -5.72624   -5.817204 C.ar        1 UNL1     0.0342
     29 C         -6.356646   -4.747134   -5.25032 C.ar        1 UNL1     0.1435
     30 C         -5.078482   -5.035423   -4.770313 C.ar        1 UNL1     0.0774
     31 O         -6.799984   -3.496497   -4.996618 O.3        1 UNL1     -0.4436
     32 C         -5.875713   -2.973014   -4.030925 C.3        1 UNL1     0.3143
     33 C         -4.608498   -3.783084   -4.215761 C.2        1 UNL1     0.2504
     34 C         -8.633089   -5.378346   -6.109057 C.3        1 UNL1     -0.0327
     35 O         -5.571067   -1.627592   -4.41859 O.2        1 UNL1     -0.4528
     36 C         -4.821017   0.238466   -1.199377 C.3        1 UNL1     0.0854
     37 C         -3.739692   -0.075007   -0.094843 C.3        1 UNL1     0.0236
     38 C         -2.740709   1.13517   0.235686 C.3        1 UNL1     0.1131
     39 C         -1.98869   1.876495   -0.942097 C.3        1 UNL1     0.0200
     40 C         -1.302686   1.0045   -2.187673 C.3        1 UNL1     0.0661
     41 C         -0.270508   -0.330595   -2.015225 C.3        1 UNL1     0.0091
     42 C         -0.054069   -1.812181   -3.075159 C.3        1 UNL1     0.0661
     43 C         -4.878033   -8.694746   -5.396592 C.2        1 UNL1     0.2131
     44 O         -5.600027   -9.667785   -5.517657 O.2        1 UNL1     -0.2851
     45 O         -7.350318   -8.00817   -6.52854 O.3        1 UNL1     -0.5056
     46 O         -3.466035   -3.459374   -3.979446 O.2        1 UNL1     -0.2836
     47 C         0.331115   -1.758446   -5.714583 C.3        1 UNL1     -0.0566
     48 O         1.426667   -1.731599   -3.081881 O.3        1 UNL1     -0.3909
     49 C         -0.337063   -0.817332   -0.584787 C.3        1 UNL1     -0.0577
     50 O         -2.250751   0.753968   -3.205578 O.3        1 UNL1     -0.3910
     51 O         -4.670829   1.464994   -1.877983 O.3        1 UNL1     -0.3753
     52 C         -3.25353   -1.559653   -0.161343 C.3        1 UNL1     -0.0564
     53 O         -1.966697   0.944764   1.50729 O.3        1 UNL1     -0.4608
     54 C         -1.908437   1.83891   2.54413 C.2        1 UNL1     0.3042
     55 O         -1.161027   1.802334   3.520798 O.2        1 UNL1     -0.2512
     56 C         -2.846478   3.001941   2.388722 C.3        1 UNL1     0.0332
     57 C         -2.847171   3.171099   -1.323131 C.3        1 UNL1     -0.0567
     58 C         -6.47135   -3.289133   -2.63923 C.3        1 UNL1     0.0210
     59 C         -5.807611   1.872733   -2.637813 C.3        1 UNL1     0.0372
     60 C         -4.978205   -0.81231   -2.241644 C.2        1 UNL1     -0.0208
     61 C         -5.080164   -0.706622   -3.56723 C.2        1 UNL1     0.0882
     62 H         -1.30291   -2.624143   -4.6353 H        1 UNL1     0.0365
     63 H         -1.593422   -4.384471   -5.628817 H        1 UNL1     0.0576
     64 H         1.059957   -5.909665   -5.989563 H        1 UNL1     0.0615
     65 H         -1.906463   -6.611933   -6.671493 H        1 UNL1     0.0622
     66 H         -5.774149   0.265597   -0.652705 H        1 UNL1     0.0645
     67 H         -4.322694   -0.139988   0.840275 H        1 UNL1     0.0362
     68 H         -3.462605   1.867759   0.627735 H        1 UNL1     0.0741
     69 H         -1.142008   2.411039   -0.532464 H        1 UNL1     0.0359
     70 H         -0.634831   1.776437   -2.615626 H        1 UNL1     0.0600
     71 H         0.711492   0.181796   -2.024656 H        1 UNL1     0.0348
     72 H         -0.541327   -1.055658   -3.707273 H        1 UNL1     0.0602
     73 H         -5.134494   -1.750879   -1.770569 H        1 UNL1     0.0628
     74 H         -4.877803   0.204955   -4.130537 H        1 UNL1     0.1022
     75 H         0.841838   -9.404817   -7.893629 H        1 UNL1     0.0279
     76 H         0.784135   -9.809172   -6.224357 H        1 UNL1     0.0279
     77 H         -0.395925   -10.491033   -7.41508 H        1 UNL1     0.0279
     78 H         -1.863333   -9.983172   -5.199883 H        1 UNL1     0.1553
     79 H         -0.893012   -8.702147   -4.040713 H        1 UNL1     0.1484
     80 H         -1.562413   -6.594448   -0.950567 H        1 UNL1     0.0317
     81 H         -2.766003   -7.670239   -1.646247 H        1 UNL1     0.0317
     82 H         -1.021696   -9.409874   -2.120345 H        1 UNL1     0.0428
     83 H         -1.091323   -8.965077   -0.429484 H        1 UNL1     0.0428
     84 H         2.00915   -7.188945   -2.739368 H        1 UNL1     0.0428
     85 H         0.973962   -8.298986   -3.567209 H        1 UNL1     0.0428
     86 H         0.497886   -5.868565   -3.869291 H        1 UNL1     0.0317
     87 H         0.211905   -5.616619   -2.208843 H        1 UNL1     0.0317
     88 H         2.374799   -9.179386   -1.569589 H        1 UNL1     0.0429
     89 H         1.807225   -8.88435   0.075722 H        1 UNL1     0.0429
     90 H         1.218238   -11.115498   -1.808871 H        1 UNL1     0.0308
     91 H         2.210148   -11.593473   0.388612 H        1 UNL1     0.0233
     92 H         0.875938   -10.750977   1.216609 H        1 UNL1     0.0233
     93 H         0.586728   -12.272036   0.3997 H        1 UNL1     0.0233
     94 H         -0.932388   -9.384348   -1.376809 H        1 UNL1     0.0233
     95 H         -0.962807   -11.024008   -2.043831 H        1 UNL1     0.0233
     96 H         -1.228812   -10.767726   -0.303845 H        1 UNL1     0.0233
     97 H         -8.739829   -4.846527   -7.049805 H        1 UNL1     0.0280
     98 H         -9.266399   -6.270984   -6.194916 H        1 UNL1     0.0280
     99 H         -9.028925   -4.73843   -5.303504 H        1 UNL1     0.0280
     100 H         -7.763552   -8.614645   -5.939432 H        1 UNL1     0.2922
     101 H         1.375518   -1.981681   -5.931482 H        1 UNL1     0.0236
     102 H         0.188554   -0.721047   -5.413812 H        1 UNL1     0.0236
     103 H         -0.180831   -1.841756   -6.687807 H        1 UNL1     0.0236
     104 H         1.771981   -2.643191   -3.01311 H        1 UNL1     0.2098
     105 H         -1.336086   -1.079505   -0.245625 H        1 UNL1     0.0234
     106 H         0.365649   -1.614245   -0.341782 H        1 UNL1     0.0234
     107 H         0.0   0.0   0.0 H        1 UNL1     0.0234
     108 H         -2.105484   1.417734   -3.907063 H        1 UNL1     0.2098
     109 H         -3.495151   -2.117877   0.753926 H        1 UNL1     0.0234
     110 H         -3.638876   -2.100105   -1.032643 H        1 UNL1     0.0234
     111 H         -2.162587   -1.62383   -0.269376 H        1 UNL1     0.0234
     112 H         -2.377377   3.779401   1.778111 H        1 UNL1     0.0342
     113 H         -3.805503   2.701401   1.969449 H        1 UNL1     0.0342
     114 H         -3.036527   3.424917   3.384783 H        1 UNL1     0.0342
     115 H         -2.207422   4.007954   -1.635512 H        1 UNL1     0.0234
     116 H         -3.577257   3.001756   -2.117074 H        1 UNL1     0.0234
     117 H         -3.376301   3.616788   -0.463291 H        1 UNL1     0.0234
     118 H         -5.806697   -2.963284   -1.820045 H        1 UNL1     0.0309
     119 H         -7.464881   -2.855118   -2.488466 H        1 UNL1     0.0309
     120 H         -6.580477   -4.364869   -2.463189 H        1 UNL1     0.0309
     121 H         -5.507369   1.912969   -3.684519 H        1 UNL1     0.0524
     122 H         -6.642248   1.15633   -2.559173 H        1 UNL1     0.0524
     123 H         -6.149327   2.849762   -2.308061 H        1 UNL1     0.0524
@<TRIPOS>BOND
     1     1     2    1
     2     1    42    1
     3     2     3    2
     4     3     4    1
     5     4     5    2
     6     5     7    1
     7     6    75    1
     8     6    76    1
     9     6    77    1
    10     7     9   am
    11     9    10    1
    12    10    11    2
    13    10    43    1
    14    11    14    1
    15    11    15    1
    16    12    13   ar
    17    12    27   ar
    18    12    43    1
    19    13    14    1
    20    13    30   ar
    21    14    17    2
    22    15    16    1
    23    16    17    1
    24    16    18    1
    25    16    22    1
    26    18    19    1
    27    19    20    1
    28    20    21    1
    29    21    22    1
    30    23    24    1
    31    23    88    1
    32    23    89    1
    33    24    25    1
    34    24    26    1
    35    24    90    1
    36    25    91    1
    37    25    92    1
    38    25    93    1
    39    26    94    1
    40    26    95    1
    41    26    96    1
    42    27    28   ar
    43    28    29   ar
    44    29    30   ar
    45    29    31    1
    46    30    33    1
    47    31    32    1
    48    32    33    1
    49    32    35    1
    50    34    97    1
    51    34    98    1
    52    34    99    1
    53    35    61    1
    54    36    37    1
    55    36    60    1
    56    37    38    1
    57    38    39    1
    58    39    40    1
    59    40    41    1
    60    41    42    1
    61    45   100    1
    62    47   101    1
    63    47   102    1
    64    47   103    1
    65    48   104    1
    66    49   105    1
    67    49   106    1
    68    49   107    1
    69    50   108    1
    70    51    59    1
    71    52   109    1
    72    52   110    1
    73    52   111    1
    74    53    54    1
    75    54    55    2
    76    54    56    1
    77    56   112    1
    78    56   113    1
    79    56   114    1
    80    57   115    1
    81    57   116    1
    82    57   117    1
    83    58   118    1
    84    58   119    1
    85    58   120    1
    86    59   121    1
    87    59   122    1
    88    59   123    1
    89    60    61    2
    90     1    47    1
    91     1    62    1
    92     2    63    1
    93     3    64    1
    94     4    65    1
    95     5     6    1
    96     7     8    2
    97     9    78    1
    98    15    79    1
    99    18    80    1
   100    18    81    1
   101    19    82    1
   102    19    83    1
   103    20    23    1
   104    21    84    1
   105    21    85    1
   106    22    86    1
   107    22    87    1
   108    27    45    1
   109    28    34    1
   110    32    58    1
   111    33    46    2
   112    36    51    1
   113    36    66    1
   114    37    52    1
   115    37    67    1
   116    38    53    1
   117    38    68    1
   118    42    48    1
   119    42    72    1
   120    43    44    2
   121    60    73    1
   122    61    74    1
   123    39    69    1
   124    39    57    1
   125    40    70    1
   126    40    50    1
   127    41    71    1
   128    41    49    1
