@<TRIPOS>MOLECULE
*****
 123 128 0 0 0
SMALL
GASTEIGER

@<TRIPOS>ATOM
     1 C         1.934976   -0.585009   -4.616679 C.3        1 UNL1     0.0009
     2 C         2.553729   -1.99407   -5.650472 C.2        1 UNL1     -0.0787
     3 C         3.633769   -2.663   -6.344802 C.2        1 UNL1     -0.0649
     4 C         3.601138   -4.172235   -7.111288 C.2        1 UNL1     -0.0542
     5 C         4.388414   -5.247118   -7.592848 C.2        1 UNL1     0.0115
     6 C         5.842756   -5.704405   -7.891345 C.3        1 UNL1     -0.0348
     7 C         3.682803   -6.660925   -7.876136 C.2        1 UNL1     0.2441
     8 O         3.391962   -7.046082   -9.000232 O.2        1 UNL1     -0.2702
     9 N         3.658425   -7.537638   -6.777532 N.am        1 UNL1     -0.2772
     10 C         2.537233   -7.316192   -6.011234 C.2        1 UNL1     0.1049
     11 C         2.614913   -6.328557   -5.13787 C.2        1 UNL1     0.0801
     12 C         0.055472   -7.040544   -6.160285 C.ar        1 UNL1     0.0753
     13 C         0.219255   -5.852283   -5.379375 C.ar        1 UNL1     0.0305
     14 C         1.489462   -5.530713   -4.732677 C.2        1 UNL1     0.0924
     15 N         3.682581   -5.627535   -4.719324 N.pl3        1 UNL1     -0.3170
     16 C         3.256227   -4.782949   -3.635281 C.3        1 UNL1     0.1275
     17 N         1.791117   -4.537279   -3.901401 N.2        1 UNL1     -0.2557
     18 C         3.320831   -5.617357   -2.359627 C.3        1 UNL1     0.0016
     19 C         4.730005   -6.168089   -2.209579 C.3        1 UNL1     0.0026
     20 N         5.66471   -5.052625   -2.153943 N.3        1 UNL1     -0.3018
     21 C         5.632512   -4.15618   -3.311405 C.3        1 UNL1     0.0026
     22 C         4.209153   -3.61096   -3.440544 C.3        1 UNL1     0.0016
     23 C         6.988408   -5.447423   -1.715079 C.3        1 UNL1     0.0012
     24 C         6.972747   -5.819986   -0.224204 C.3        1 UNL1     -0.0339
     25 C         8.292262   -5.435929   0.465317 C.3        1 UNL1     -0.0615
     26 C         5.777474   -5.179757   0.460053 C.3        1 UNL1     -0.0615
     27 C         -1.188379   -7.401781   -6.672594 C.ar        1 UNL1     0.1347
     28 C         -2.344061   -6.678266   -6.438128 C.ar        1 UNL1     0.0342
     29 C         -2.149884   -5.486466   -5.70801 C.ar        1 UNL1     0.1435
     30 C         -0.903465   -5.093097   -5.219214 C.ar        1 UNL1     0.0774
     31 O         -3.193351   -4.729406   -5.304224 O.3        1 UNL1     -0.4436
     32 C         -2.666644   -3.924782   -4.238375 C.3        1 UNL1     0.3143
     33 C         -1.171364   -3.877477   -4.479442 C.2        1 UNL1     0.2504
     34 C         -3.745137   -7.132761   -6.738997 C.3        1 UNL1     -0.0327
     35 O         -3.161688   -2.593147   -4.425276 O.2        1 UNL1     -0.4528
     36 C         -3.422831   -1.083031   -0.952605 C.3        1 UNL1     0.0854
     37 C         -2.302241   -0.903609   0.142662 C.3        1 UNL1     0.0236
     38 C         -2.113424   0.596599   0.676952 C.3        1 UNL1     0.1131
     39 C         -1.936145   1.781446   -0.355995 C.3        1 UNL1     0.0200
     40 C         -0.936227   1.605935   -1.67955 C.3        1 UNL1     0.0661
     41 C         0.663322   1.041935   -1.648628 C.3        1 UNL1     0.0091
     42 C         1.610473   0.080775   -2.891399 C.3        1 UNL1     0.0661
     43 C         1.236476   -7.922695   -6.331453 C.2        1 UNL1     0.2131
     44 O         1.158475   -9.104457   -6.614458 O.2        1 UNL1     -0.2851
     45 O         -1.252992   -8.549043   -7.460663 O.3        1 UNL1     -0.5056
     46 O         -0.38239   -3.018823   -4.153733 O.2        1 UNL1     -0.2836
     47 C         1.797167   0.697617   -5.480311 C.3        1 UNL1     -0.0566
     48 O         2.805472   0.956413   -2.825425 O.3        1 UNL1     -0.3909
     49 C         0.930934   0.406957   -0.302269 C.3        1 UNL1     -0.0577
     50 O         -1.633939   1.021123   -2.760714 O.3        1 UNL1     -0.3910
     51 O         -3.993967   0.105953   -1.45015 O.3        1 UNL1     -0.3753
     52 C         -1.087659   -1.856428   -0.106086 C.3        1 UNL1     -0.0564
     53 O         -1.310474   0.687112   1.941628 O.3        1 UNL1     -0.4608
     54 C         -0.41207   1.676758   2.243955 C.2        1 UNL1     0.3042
     55 O         0.815491   1.612889   2.190536 O.2        1 UNL1     -0.2512
     56 C         -1.057217   2.979209   2.623587 C.3        1 UNL1     0.0332
     57 C         -3.376625   2.435393   -0.591674 C.3        1 UNL1     -0.0567
     58 C         -2.936521   -4.702148   -2.929025 C.3        1 UNL1     0.0210
     59 C         -5.329792   0.356686   -1.015902 C.3        1 UNL1     0.0372
     60 C         -3.022818   -1.894396   -2.134483 C.2        1 UNL1     -0.0208
     61 C         -3.219246   -1.680763   -3.436221 C.2        1 UNL1     0.0882
     62 H         0.94564   -1.057872   -4.598563 H        1 UNL1     0.0365
     63 H         1.623339   -2.53523   -5.834833 H        1 UNL1     0.0576
     64 H         4.661983   -2.298442   -6.290191 H        1 UNL1     0.0615
     65 H         2.535185   -4.40429   -7.184616 H        1 UNL1     0.0622
     66 H         -4.213308   -1.65579   -0.447492 H        1 UNL1     0.0645
     67 H         -2.717021   -1.403822   1.035021 H        1 UNL1     0.0362
     68 H         -3.101674   0.754414   1.135186 H        1 UNL1     0.0741
     69 H         -1.502813   2.629179   0.157796 H        1 UNL1     0.0359
     70 H         -0.815885   2.667254   -1.969689 H        1 UNL1     0.0600
     71 H         1.205111   2.002712   -1.546995 H        1 UNL1     0.0348
     72 H         0.764267   0.526974   -3.433764 H        1 UNL1     0.0602
     73 H         -2.622329   -2.820193   -1.803186 H        1 UNL1     0.0628
     74 H         -3.57016   -0.739478   -3.860579 H        1 UNL1     0.1022
     75 H         6.393359   -4.915193   -8.457927 H        1 UNL1     0.0279
     76 H         6.486723   -5.866732   -7.029936 H        1 UNL1     0.0279
     77 H         5.88721   -6.547902   -8.595787 H        1 UNL1     0.0279
     78 H         4.470738   -7.369497   -6.187656 H        1 UNL1     0.1553
     79 H         4.630282   -5.940078   -4.824743 H        1 UNL1     0.1484
     80 H         3.044077   -4.98716   -1.505798 H        1 UNL1     0.0317
     81 H         2.595954   -6.437833   -2.391607 H        1 UNL1     0.0317
     82 H         4.986262   -6.858875   -3.026315 H        1 UNL1     0.0428
     83 H         4.753325   -6.761226   -1.294869 H        1 UNL1     0.0428
     84 H         6.285615   -3.283955   -3.208978 H        1 UNL1     0.0428
     85 H         5.991802   -4.652899   -4.22327 H        1 UNL1     0.0428
     86 H         4.254565   -2.862181   -4.209476 H        1 UNL1     0.0317
     87 H         3.9446   -3.03785   -2.543519 H        1 UNL1     0.0317
     88 H         7.290492   -6.330699   -2.292888 H        1 UNL1     0.0429
     89 H         7.727052   -4.661583   -1.919122 H        1 UNL1     0.0429
     90 H         6.829663   -6.90262   -0.126003 H        1 UNL1     0.0308
     91 H         8.60267   -4.422525   0.193727 H        1 UNL1     0.0233
     92 H         8.194065   -5.501982   1.551412 H        1 UNL1     0.0233
     93 H         9.116777   -6.105306   0.191558 H        1 UNL1     0.0233
     94 H         5.955305   -5.104071   1.538238 H        1 UNL1     0.0233
     95 H         5.622041   -4.169105   0.072257 H        1 UNL1     0.0233
     96 H         4.866407   -5.763172   0.300199 H        1 UNL1     0.0233
     97 H         -4.367111   -7.152283   -5.849054 H        1 UNL1     0.0280
     98 H         -4.253827   -6.465065   -7.446579 H        1 UNL1     0.0280
     99 H         -3.719922   -8.148981   -7.165324 H        1 UNL1     0.0280
     100 H         -0.612249   -8.587933   -8.148818 H        1 UNL1     0.2922
     101 H         0.745756   0.881614   -5.700166 H        1 UNL1     0.0236
     102 H         2.405767   0.673571   -6.383645 H        1 UNL1     0.0236
     103 H         2.131925   1.59874   -4.939841 H        1 UNL1     0.0236
     104 H         2.491628   1.877383   -2.734399 H        1 UNL1     0.2098
     105 H         1.65658   -0.402236   -0.323632 H        1 UNL1     0.0234
     106 H         1.173881   1.111337   0.493188 H        1 UNL1     0.0234
     107 H         0.0   0.0   0.0 H        1 UNL1     0.0234
     108 H         -2.444865   1.546929   -2.901055 H        1 UNL1     0.2098
     109 H         -1.377446   -2.91609   -0.076884 H        1 UNL1     0.0234
     110 H         -0.560674   -1.646362   -1.04305 H        1 UNL1     0.0234
     111 H         -0.31564   -1.738023   0.665868 H        1 UNL1     0.0234
     112 H         -0.287811   3.729005   2.831352 H        1 UNL1     0.0342
     113 H         -1.749647   3.331061   1.860315 H        1 UNL1     0.0342
     114 H         -1.63161   2.821326   3.546793 H        1 UNL1     0.0342
     115 H         -3.435249   3.452974   -0.181454 H        1 UNL1     0.0234
     116 H         -3.674659   2.486607   -1.64077 H        1 UNL1     0.0234
     117 H         -4.184583   1.93323   -0.032231 H        1 UNL1     0.0234
     118 H         -3.702244   -4.209396   -2.304628 H        1 UNL1     0.0309
     119 H         -3.229219   -5.742984   -3.099874 H        1 UNL1     0.0309
     120 H         -2.060001   -4.737446   -2.272844 H        1 UNL1     0.0309
     121 H         -5.809247   0.981987   -1.768549 H        1 UNL1     0.0524
     122 H         -5.921803   -0.569471   -0.927618 H        1 UNL1     0.0524
     123 H         -5.323763   0.864192   -0.055436 H        1 UNL1     0.0524
@<TRIPOS>BOND
     1     1     2    1
     2     1    42    1
     3     2     3    2
     4     3     4    1
     5     4     5    2
     6     5     7    1
     7     6    75    1
     8     6    76    1
     9     6    77    1
    10     7     9   am
    11     9    10    1
    12    10    11    2
    13    10    43    1
    14    11    14    1
    15    11    15    1
    16    12    13   ar
    17    12    27   ar
    18    12    43    1
    19    13    14    1
    20    13    30   ar
    21    14    17    2
    22    15    16    1
    23    16    17    1
    24    16    18    1
    25    16    22    1
    26    18    19    1
    27    19    20    1
    28    20    21    1
    29    21    22    1
    30    23    24    1
    31    23    88    1
    32    23    89    1
    33    24    25    1
    34    24    26    1
    35    24    90    1
    36    25    91    1
    37    25    92    1
    38    25    93    1
    39    26    94    1
    40    26    95    1
    41    26    96    1
    42    27    28   ar
    43    28    29   ar
    44    29    30   ar
    45    29    31    1
    46    30    33    1
    47    31    32    1
    48    32    33    1
    49    32    35    1
    50    34    97    1
    51    34    98    1
    52    34    99    1
    53    35    61    1
    54    36    37    1
    55    36    60    1
    56    37    38    1
    57    38    39    1
    58    39    40    1
    59    40    41    1
    60    41    42    1
    61    45   100    1
    62    47   101    1
    63    47   102    1
    64    47   103    1
    65    48   104    1
    66    49   105    1
    67    49   106    1
    68    49   107    1
    69    50   108    1
    70    51    59    1
    71    52   109    1
    72    52   110    1
    73    52   111    1
    74    53    54    1
    75    54    55    2
    76    54    56    1
    77    56   112    1
    78    56   113    1
    79    56   114    1
    80    57   115    1
    81    57   116    1
    82    57   117    1
    83    58   118    1
    84    58   119    1
    85    58   120    1
    86    59   121    1
    87    59   122    1
    88    59   123    1
    89    60    61    2
    90     1    47    1
    91     1    62    1
    92     2    63    1
    93     3    64    1
    94     4    65    1
    95     5     6    1
    96     7     8    2
    97     9    78    1
    98    15    79    1
    99    18    80    1
   100    18    81    1
   101    19    82    1
   102    19    83    1
   103    20    23    1
   104    21    84    1
   105    21    85    1
   106    22    86    1
   107    22    87    1
   108    27    45    1
   109    28    34    1
   110    32    58    1
   111    33    46    2
   112    36    51    1
   113    36    66    1
   114    37    52    1
   115    37    67    1
   116    38    53    1
   117    38    68    1
   118    42    48    1
   119    42    72    1
   120    43    44    2
   121    60    73    1
   122    61    74    1
   123    39    69    1
   124    39    57    1
   125    40    70    1
   126    40    50    1
   127    41    71    1
   128    41    49    1
