@<TRIPOS>MOLECULE
*****
 123 128 0 0 0
SMALL
GASTEIGER

@<TRIPOS>ATOM
     1 C         1.517476   -1.340077   3.797196 C.3        1 UNL1     0.0009
     2 C         1.276213   -2.924204   4.729597 C.2        1 UNL1     -0.0787
     3 C         0.503003   -3.738591   5.643362 C.2        1 UNL1     -0.0649
     4 C         0.768807   -5.353143   6.07802 C.2        1 UNL1     -0.0542
     5 C         0.179758   -6.521168   6.621912 C.2        1 UNL1     0.0115
     6 C         -1.079679   -7.073831   7.344203 C.3        1 UNL1     -0.0348
     7 C         0.899982   -7.936356   6.386312 C.2        1 UNL1     0.2441
     8 O         1.5676   -8.494539   7.246105 O.2        1 UNL1     -0.2702
     9 N         0.499734   -8.614258   5.221665 N.am        1 UNL1     -0.2772
     10 C         1.272596   -8.227102   4.151096 C.2        1 UNL1     0.1049
     11 C         0.911401   -7.109999   3.546248 C.2        1 UNL1     0.0801
     12 C         3.64626   -7.891971   3.436436 C.ar        1 UNL1     0.0753
     13 C         3.244021   -6.595867   2.981543 C.ar        1 UNL1     0.0305
     14 C         1.835364   -6.215652   2.902966 C.2        1 UNL1     0.0924
     15 N         -0.21519   -6.387144   3.667913 N.pl3        1 UNL1     -0.3170
     16 C         -0.187259   -5.357495   2.663275 C.3        1 UNL1     0.1275
     17 N         1.280949   -5.107921   2.418733 N.2        1 UNL1     -0.2557
     18 C         -0.733393   -5.967109   1.375716 C.3        1 UNL1     0.0016
     19 C         -2.115998   -6.534731   1.654642 C.3        1 UNL1     0.0026
     20 N         -2.975497   -5.459932   2.131189 N.3        1 UNL1     -0.3018
     21 C         -2.500653   -4.770476   3.332664 C.3        1 UNL1     0.0026
     22 C         -1.112569   -4.204257   3.028502 C.3        1 UNL1     0.0016
     23 C         -4.378795   -5.822289   2.140905 C.3        1 UNL1     0.0012
     24 C         -4.915187   -5.937858   0.705397 C.3        1 UNL1     -0.0339
     25 C         -6.383542   -5.490643   0.616015 C.3        1 UNL1     -0.0615
     26 C         -4.031787   -5.149321   -0.245704 C.3        1 UNL1     -0.0615
     27 C         4.980528   -8.289589   3.39463 C.ar        1 UNL1     0.1347
     28 C         5.992456   -7.496112   2.884292 C.ar        1 UNL1     0.0342
     29 C         5.580416   -6.206156   2.487556 C.ar        1 UNL1     0.1435
     30 C         4.253185   -5.780933   2.557298 C.ar        1 UNL1     0.0774
     31 O         6.42737   -5.355151   1.86831 O.3        1 UNL1     -0.4436
     32 C         5.572954   -4.401984   1.21845 C.3        1 UNL1     0.3143
     33 C         4.268761   -4.449376   1.988546 C.2        1 UNL1     0.2504
     34 C         7.393906   -7.9444   2.575947 C.3        1 UNL1     -0.0327
     35 O         6.139342   -3.103964   1.436626 O.2        1 UNL1     -0.4528
     36 C         5.166136   -1.022658   -1.584818 C.3        1 UNL1     0.0854
     37 C         3.730232   -0.701641   -2.152842 C.3        1 UNL1     0.0236
     38 C         3.402859   0.859364   -2.31967 C.3        1 UNL1     0.1131
     39 C         3.64554   1.846391   -1.107584 C.3        1 UNL1     0.0200
     40 C         3.18897   1.415045   0.437707 C.3        1 UNL1     0.0661
     41 C         1.671836   0.807504   0.892469 C.3        1 UNL1     0.0091
     42 C         1.213025   -0.382299   2.21128 C.3        1 UNL1     0.0661
     43 C         2.583331   -8.831972   3.870993 C.2        1 UNL1     0.2131
     44 O         2.725336   -10.040953   3.901627 O.2        1 UNL1     -0.2851
     45 O         5.294136   -9.550053   3.89893 O.3        1 UNL1     -0.5056
     46 O         3.439878   -3.576904   2.121211 O.2        1 UNL1     -0.2836
     47 C         1.995044   -0.216979   4.756654 C.3        1 UNL1     -0.0566
     48 O         0.100553   0.448689   2.731841 O.3        1 UNL1     -0.3909
     49 C         0.91657   0.398993   -0.352596 C.3        1 UNL1     -0.0577
     50 O         4.214424   0.681946   1.077028 O.3        1 UNL1     -0.3910
     51 O         5.912013   0.085282   -1.133634 O.3        1 UNL1     -0.3753
     52 C         2.662161   -1.725512   -1.647013 C.3        1 UNL1     -0.0564
     53 O         2.198932   1.132654   -3.173015 O.3        1 UNL1     -0.4608
     54 C         2.14137   2.037816   -4.200292 C.2        1 UNL1     0.3042
     55 O         1.625289   3.154607   -4.183651 O.2        1 UNL1     -0.2512
     56 C         2.852553   1.583197   -5.442972 C.3        1 UNL1     0.0332
     57 C         5.091257   2.502399   -1.301829 C.3        1 UNL1     -0.0567
     58 C         5.327793   -4.937783   -0.211356 C.3        1 UNL1     0.0210
     59 C         6.930511   0.527254   -2.029843 C.3        1 UNL1     0.0372
     60 C         5.199147   -2.035103   -0.494394 C.2        1 UNL1     -0.0208
     61 C         5.860068   -2.036689   0.664022 C.2        1 UNL1     0.0882
     62 H         2.419211   -1.767493   3.342332 H        1 UNL1     0.0365
     63 H         2.194522   -3.455078   4.470073 H        1 UNL1     0.0576
     64 H         -0.464363   -3.407018   6.02725 H        1 UNL1     0.0615
     65 H         1.781844   -5.555991   5.72012 H        1 UNL1     0.0622
     66 H         5.70326   -1.473635   -2.431082 H        1 UNL1     0.0645
     67 H         3.779029   -1.029413   -3.205811 H        1 UNL1     0.0362
     68 H         4.161773   1.127247   -3.070543 H        1 UNL1     0.0741
     69 H         3.079461   2.752462   -1.277873 H        1 UNL1     0.0359
     70 H         3.211919   2.407419   0.927328 H        1 UNL1     0.0600
     71 H         1.157328   1.751702   1.158417 H        1 UNL1     0.0348
     72 H         2.210486   -0.003785   2.47795 H        1 UNL1     0.0602
     73 H         4.679913   -2.905658   -0.810272 H        1 UNL1     0.0628
     74 H         6.367294   -1.168308   1.085773 H        1 UNL1     0.1022
     75 H         -1.364975   -6.411401   8.196744 H        1 UNL1     0.0279
     76 H         -1.996423   -7.111792   6.760072 H        1 UNL1     0.0279
     77 H         -0.889441   -8.024883   7.862866 H        1 UNL1     0.0279
     78 H         -0.466091   -8.378385   5.00344 H        1 UNL1     0.1553
     79 H         -1.068592   -6.74663   4.054445 H        1 UNL1     0.1484
     80 H         -0.767393   -5.192738   0.599855 H        1 UNL1     0.0317
     81 H         -0.069633   -6.754835   1.003476 H        1 UNL1     0.0317
     82 H         -2.078056   -7.361814   2.378801 H        1 UNL1     0.0428
     83 H         -2.48603   -6.965934   0.723948 H        1 UNL1     0.0428
     84 H         -3.121635   -3.917353   3.623137 H        1 UNL1     0.0428
     85 H         -2.518741   -5.426073   4.214243 H        1 UNL1     0.0428
     86 H         -0.855035   -3.597658   3.876855 H        1 UNL1     0.0317
     87 H         -1.175202   -3.47929   2.207773 H        1 UNL1     0.0317
     88 H         -4.475579   -6.800423   2.629967 H        1 UNL1     0.0429
     89 H         -4.970787   -5.108892   2.728599 H        1 UNL1     0.0429
     90 H         -4.847967   -6.982715   0.379868 H        1 UNL1     0.0308
     91 H         -6.545721   -4.54914   1.14928 H        1 UNL1     0.0233
     92 H         -6.687675   -5.369437   -0.426301 H        1 UNL1     0.0233
     93 H         -7.071205   -6.225568   1.051721 H        1 UNL1     0.0233
     94 H         -4.586197   -4.899684   -1.156828 H        1 UNL1     0.0233
     95 H         -3.717963   -4.21344   0.225043 H        1 UNL1     0.0233
     96 H         -3.141554   -5.718386   -0.527872 H        1 UNL1     0.0233
     97 H         7.650117   -7.79165   1.531795 H        1 UNL1     0.0280
     98 H         8.143088   -7.387553   3.153791 H        1 UNL1     0.0280
     99 H         7.496378   -9.018113   2.803401 H        1 UNL1     0.0280
     100 H         4.936958   -9.730984   4.750582 H        1 UNL1     0.2922
     101 H         3.059364   -0.035154   4.608939 H        1 UNL1     0.0236
     102 H         1.754921   -0.414422   5.800848 H        1 UNL1     0.0236
     103 H         1.512621   0.749698   4.5353 H        1 UNL1     0.0236
     104 H         0.425702   1.367722   2.799868 H        1 UNL1     0.2098
     105 H         0.68474   1.21968   -1.026792 H        1 UNL1     0.0234
     106 H         1.361875   -0.428827   -0.904271 H        1 UNL1     0.0234
     107 H         0.0   -0.0   0.0 H        1 UNL1     0.0234
     108 H         5.048155   1.172819   0.943972 H        1 UNL1     0.2098
     109 H         1.987083   -1.286969   -0.898908 H        1 UNL1     0.0234
     110 H         2.073027   -2.168503   -2.457213 H        1 UNL1     0.0234
     111 H         3.130069   -2.588804   -1.155348 H        1 UNL1     0.0234
     112 H         2.786749   2.357174   -6.213671 H        1 UNL1     0.0342
     113 H         3.889433   1.314698   -5.246422 H        1 UNL1     0.0342
     114 H         2.342587   0.686683   -5.821604 H        1 UNL1     0.0342
     115 H         5.172248   3.036321   -2.258676 H        1 UNL1     0.0234
     116 H         5.371559   3.201176   -0.511139 H        1 UNL1     0.0234
     117 H         5.90133   1.759771   -1.402958 H        1 UNL1     0.0234
     118 H         4.695411   -5.842824   -0.212195 H        1 UNL1     0.0309
     119 H         4.8864   -4.191832   -0.879886 H        1 UNL1     0.0309
     120 H         6.249895   -5.273527   -0.698295 H        1 UNL1     0.0309
     121 H         7.697056   1.026195   -1.437541 H        1 UNL1     0.0524
     122 H         7.413518   -0.310357   -2.560078 H        1 UNL1     0.0524
     123 H         6.515176   1.214865   -2.761131 H        1 UNL1     0.0524
@<TRIPOS>BOND
     1     1     2    1
     2     1    42    1
     3     2     3    2
     4     3     4    1
     5     4     5    2
     6     5     7    1
     7     6    75    1
     8     6    76    1
     9     6    77    1
    10     7     9   am
    11     9    10    1
    12    10    11    2
    13    10    43    1
    14    11    14    1
    15    11    15    1
    16    12    13   ar
    17    12    27   ar
    18    12    43    1
    19    13    14    1
    20    13    30   ar
    21    14    17    2
    22    15    16    1
    23    16    17    1
    24    16    18    1
    25    16    22    1
    26    18    19    1
    27    19    20    1
    28    20    21    1
    29    21    22    1
    30    23    24    1
    31    23    88    1
    32    23    89    1
    33    24    25    1
    34    24    26    1
    35    24    90    1
    36    25    91    1
    37    25    92    1
    38    25    93    1
    39    26    94    1
    40    26    95    1
    41    26    96    1
    42    27    28   ar
    43    28    29   ar
    44    29    30   ar
    45    29    31    1
    46    30    33    1
    47    31    32    1
    48    32    33    1
    49    32    35    1
    50    34    97    1
    51    34    98    1
    52    34    99    1
    53    35    61    1
    54    36    37    1
    55    36    60    1
    56    37    38    1
    57    38    39    1
    58    39    40    1
    59    40    41    1
    60    41    42    1
    61    45   100    1
    62    47   101    1
    63    47   102    1
    64    47   103    1
    65    48   104    1
    66    49   105    1
    67    49   106    1
    68    49   107    1
    69    50   108    1
    70    51    59    1
    71    52   109    1
    72    52   110    1
    73    52   111    1
    74    53    54    1
    75    54    55    2
    76    54    56    1
    77    56   112    1
    78    56   113    1
    79    56   114    1
    80    57   115    1
    81    57   116    1
    82    57   117    1
    83    58   118    1
    84    58   119    1
    85    58   120    1
    86    59   121    1
    87    59   122    1
    88    59   123    1
    89    60    61    2
    90     1    47    1
    91     1    62    1
    92     2    63    1
    93     3    64    1
    94     4    65    1
    95     5     6    1
    96     7     8    2
    97     9    78    1
    98    15    79    1
    99    18    80    1
   100    18    81    1
   101    19    82    1
   102    19    83    1
   103    20    23    1
   104    21    84    1
   105    21    85    1
   106    22    86    1
   107    22    87    1
   108    27    45    1
   109    28    34    1
   110    32    58    1
   111    33    46    2
   112    36    51    1
   113    36    66    1
   114    37    52    1
   115    37    67    1
   116    38    53    1
   117    38    68    1
   118    42    48    1
   119    42    72    1
   120    43    44    2
   121    60    73    1
   122    61    74    1
   123    39    69    1
   124    39    57    1
   125    40    70    1
   126    40    50    1
   127    41    71    1
   128    41    49    1
