@<TRIPOS>MOLECULE
*****
 123 128 0 0 0
SMALL
GASTEIGER

@<TRIPOS>ATOM
     1 C         -1.558593   2.281263   3.067888 C.3        1 UNL1     0.0009
     2 C         -3.335475   2.702672   3.387482 C.2        1 UNL1     -0.0787
     3 C         -4.4578   3.605756   3.243009 C.2        1 UNL1     -0.0649
     4 C         -6.063324   3.354643   3.717974 C.2        1 UNL1     -0.0542
     5 C         -7.40695   3.762798   3.530471 C.2        1 UNL1     0.0115
     6 C         -8.313057   4.838793   2.871284 C.3        1 UNL1     -0.0348
     7 C         -8.588932   2.793444   4.020631 C.2        1 UNL1     0.2441
     8 O         -9.21708   2.979783   5.053701 O.2        1 UNL1     -0.2702
     9 N         -9.029056   1.8681   3.058247 N.am        1 UNL1     -0.2772
     10 C         -8.279021   0.716237   3.121336 C.2        1 UNL1     0.1049
     11 C         -7.125457   0.736893   2.478619 C.2        1 UNL1     0.0801
     12 C         -7.400549   -0.993588   4.721998 C.ar        1 UNL1     0.0753
     13 C         -6.117631   -0.779474   4.1246 C.ar        1 UNL1     0.0305
     14 C         -5.965662   -0.003485   2.895861 C.2        1 UNL1     0.0924
     15 N         -6.646324   1.626349   1.592149 N.pl3        1 UNL1     -0.3170
     16 C         -5.418459   1.098151   1.0596 C.3        1 UNL1     0.1275
     17 N         -4.881186   0.211794   2.15661 N.2        1 UNL1     -0.2557
     18 C         -5.788072   0.169014   -0.092699 C.3        1 UNL1     0.0016
     19 C         -6.62408   0.947397   -1.096093 C.3        1 UNL1     0.0026
     20 N         -5.847807   2.085325   -1.568903 N.3        1 UNL1     -0.3018
     21 C         -5.393085   3.004987   -0.524003 C.3        1 UNL1     0.0026
     22 C         -4.551569   2.203032   0.470289 C.3        1 UNL1     0.0016
     23 C         -6.427074   2.716493   -2.737971 C.3        1 UNL1     0.0012
     24 C         -7.502001   3.733757   -2.323892 C.3        1 UNL1     -0.0339
     25 C         -8.646542   3.791171   -3.348971 C.3        1 UNL1     -0.0615
     26 C         -8.014731   3.41173   -0.930986 C.3        1 UNL1     -0.0615
     27 C         -7.552971   -1.832992   5.823037 C.ar        1 UNL1     0.1347
     28 C         -6.506751   -2.540826   6.387346 C.ar        1 UNL1     0.0342
     29 C         -5.245047   -2.276548   5.81339 C.ar        1 UNL1     0.1435
     30 C         -5.071623   -1.410363   4.733173 C.ar        1 UNL1     0.0774
     31 O         -4.145054   -2.97009   6.179478 O.3        1 UNL1     -0.4436
     32 C         -3.218697   -2.777105   5.099898 C.3        1 UNL1     0.3143
     33 C         -3.659436   -1.494355   4.424239 C.2        1 UNL1     0.2504
     34 C         -6.633815   -3.644311   7.400398 C.3        1 UNL1     -0.0327
     35 O         -1.934064   -2.522303   5.681315 O.2        1 UNL1     -0.4528
     36 C         0.612971   -3.854357   3.202135 C.3        1 UNL1     0.0854
     37 C         0.819249   -3.47552   1.685081 C.3        1 UNL1     0.0236
     38 C         2.300207   -2.992111   1.304524 C.3        1 UNL1     0.1131
     39 C         2.999425   -1.858143   2.157448 C.3        1 UNL1     0.0200
     40 C         2.146873   -0.500487   2.61828 C.3        1 UNL1     0.0661
     41 C         1.209104   0.477813   1.597923 C.3        1 UNL1     0.0091
     42 C         -0.316876   1.436459   1.94112 C.3        1 UNL1     0.0661
     43 C         -8.577594   -0.362428   4.075113 C.2        1 UNL1     0.2131
     44 O         -9.719594   -0.758415   4.222652 O.2        1 UNL1     -0.2851
     45 O         -8.827927   -1.951135   6.372552 O.3        1 UNL1     -0.5056
     46 O         -2.990815   -0.707397   3.792182 O.2        1 UNL1     -0.2836
     47 C         -0.630954   3.129038   3.979341 C.3        1 UNL1     -0.0566
     48 O         0.174033   2.670973   1.282259 O.3        1 UNL1     -0.3909
     49 C         0.987834   -0.250964   0.291242 C.3        1 UNL1     -0.0577
     50 O         1.461816   -0.727439   3.833563 O.3        1 UNL1     -0.3910
     51 O         1.689963   -3.559452   4.062688 O.3        1 UNL1     -0.3753
     52 C         -0.45579   -2.808357   1.073428 C.3        1 UNL1     -0.0564
     53 O         2.566088   -2.977058   -0.172434 O.3        1 UNL1     -0.4608
     54 C         3.316445   -2.041702   -0.835762 C.2        1 UNL1     0.3042
     55 O         2.907302   -1.102767   -1.517556 O.2        1 UNL1     -0.2512
     56 C         4.795628   -2.197924   -0.625224 C.3        1 UNL1     0.0332
     57 C         3.910454   -2.57565   3.258985 C.3        1 UNL1     -0.0567
     58 C         -3.434741   -3.955643   4.122194 C.3        1 UNL1     0.0210
     59 C         2.418041   -4.696862   4.523196 C.3        1 UNL1     0.0372
     60 C         -0.608672   -3.283702   3.832296 C.2        1 UNL1     -0.0208
     61 C         -0.775229   -2.693551   5.016662 C.2        1 UNL1     0.0882
     62 H         -1.712959   1.324753   3.58167 H        1 UNL1     0.0365
     63 H         -3.632312   1.865231   4.022345 H        1 UNL1     0.0576
     64 H         -4.389243   4.511595   2.636492 H        1 UNL1     0.0615
     65 H         -6.007229   2.48302   4.375705 H        1 UNL1     0.0622
     66 H         0.468651   -4.943942   3.197381 H        1 UNL1     0.0645
     67 H         0.761714   -4.443139   1.156911 H        1 UNL1     0.0362
     68 H         2.858282   -3.91345   1.530818 H        1 UNL1     0.0741
     69 H         3.814758   -1.441805   1.58099 H        1 UNL1     0.0359
     70 H         2.98567   0.166917   2.894054 H        1 UNL1     0.0600
     71 H         1.966483   1.229782   1.301482 H        1 UNL1     0.0348
     72 H         0.146174   1.24293   2.919612 H        1 UNL1     0.0602
     73 H         -1.453076   -3.518939   3.233218 H        1 UNL1     0.0628
     74 H         0.040146   -2.367427   5.663225 H        1 UNL1     0.1022
     75 H         -8.880583   5.403696   3.649637 H        1 UNL1     0.0279
     76 H         -7.806234   5.633266   2.328134 H        1 UNL1     0.0279
     77 H         -9.131513   4.401729   2.280686 H        1 UNL1     0.0279
     78 H         -8.909856   2.260628   2.126694 H        1 UNL1     0.1553
     79 H         -7.221661   2.276867   1.08941 H        1 UNL1     0.1484
     80 H         -4.86885   -0.216072   -0.550417 H        1 UNL1     0.0317
     81 H         -6.346044   -0.701022   0.269733 H        1 UNL1     0.0317
     82 H         -7.580949   1.273659   -0.662656 H        1 UNL1     0.0428
     83 H         -6.878148   0.265676   -1.908347 H        1 UNL1     0.0428
     84 H         -4.746172   3.805756   -0.895602 H        1 UNL1     0.0428
     85 H         -6.232014   3.53633   -0.053695 H        1 UNL1     0.0428
     86 H         -4.128498   2.927083   1.141667 H        1 UNL1     0.0317
     87 H         -3.673774   1.782461   -0.035371 H        1 UNL1     0.0317
     88 H         -5.627929   3.249381   -3.269659 H        1 UNL1     0.0429
     89 H         -6.834245   1.970972   -3.433085 H        1 UNL1     0.0429
     90 H         -7.046635   4.728648   -2.252855 H        1 UNL1     0.0308
     91 H         -8.974399   2.787475   -3.635687 H        1 UNL1     0.0233
     92 H         -9.497881   4.345322   -2.946793 H        1 UNL1     0.0233
     93 H         -8.354879   4.306403   -4.272174 H        1 UNL1     0.0233
     94 H         -9.006018   3.853292   -0.781955 H        1 UNL1     0.0233
     95 H         -8.105966   2.328962   -0.807488 H        1 UNL1     0.0233
     96 H         -7.344015   3.799757   -0.159272 H        1 UNL1     0.0233
     97 H         -6.798634   -3.260286   8.40269 H        1 UNL1     0.0280
     98 H         -7.484446   -4.305072   7.188083 H        1 UNL1     0.0280
     99 H         -5.710272   -4.246058   7.408432 H        1 UNL1     0.0280
     100 H         -9.474331   -2.307681   5.788891 H        1 UNL1     0.2922
     101 H         -0.913398   4.179677   3.915779 H        1 UNL1     0.0236
     102 H         0.427976   2.977004   3.773101 H        1 UNL1     0.0236
     103 H         -0.749513   2.871351   5.045049 H        1 UNL1     0.0236
     104 H         -0.40875   3.404867   1.559269 H        1 UNL1     0.2098
     105 H         1.657708   0.050473   -0.510142 H        1 UNL1     0.0234
     106 H         0.963051   -1.337431   0.374319 H        1 UNL1     0.0234
     107 H         0.0   0.0   0.0 H        1 UNL1     0.0234
     108 H         1.040877   0.115338   4.091059 H        1 UNL1     0.2098
     109 H         -1.332931   -3.468925   1.117977 H        1 UNL1     0.0234
     110 H         -0.699442   -1.844263   1.532666 H        1 UNL1     0.0234
     111 H         -0.317259   -2.569492   0.010555 H        1 UNL1     0.0234
     112 H         5.075162   -3.251961   -0.715841 H        1 UNL1     0.0342
     113 H         5.374302   -1.579968   -1.310141 H        1 UNL1     0.0342
     114 H         5.032817   -1.873308   0.397287 H        1 UNL1     0.0342
     115 H         4.178197   -1.891651   4.076082 H        1 UNL1     0.0234
     116 H         3.451836   -3.459208   3.707365 H        1 UNL1     0.0234
     117 H         4.908541   -2.862435   2.885465 H        1 UNL1     0.0234
     118 H         -2.745946   -4.794316   4.325161 H        1 UNL1     0.0309
     119 H         -4.463547   -4.329485   4.120612 H        1 UNL1     0.0309
     120 H         -3.2078   -3.687915   3.084444 H        1 UNL1     0.0309
     121 H         2.876964   -4.431263   5.475143 H        1 UNL1     0.0524
     122 H         1.765198   -5.567643   4.700887 H        1 UNL1     0.0524
     123 H         3.182756   -4.970864   3.801928 H        1 UNL1     0.0524
@<TRIPOS>BOND
     1     1     2    1
     2     1    42    1
     3     2     3    2
     4     3     4    1
     5     4     5    2
     6     5     7    1
     7     6    75    1
     8     6    76    1
     9     6    77    1
    10     7     9   am
    11     9    10    1
    12    10    11    2
    13    10    43    1
    14    11    14    1
    15    11    15    1
    16    12    13   ar
    17    12    27   ar
    18    12    43    1
    19    13    14    1
    20    13    30   ar
    21    14    17    2
    22    15    16    1
    23    16    17    1
    24    16    18    1
    25    16    22    1
    26    18    19    1
    27    19    20    1
    28    20    21    1
    29    21    22    1
    30    23    24    1
    31    23    88    1
    32    23    89    1
    33    24    25    1
    34    24    26    1
    35    24    90    1
    36    25    91    1
    37    25    92    1
    38    25    93    1
    39    26    94    1
    40    26    95    1
    41    26    96    1
    42    27    28   ar
    43    28    29   ar
    44    29    30   ar
    45    29    31    1
    46    30    33    1
    47    31    32    1
    48    32    33    1
    49    32    35    1
    50    34    97    1
    51    34    98    1
    52    34    99    1
    53    35    61    1
    54    36    37    1
    55    36    60    1
    56    37    38    1
    57    38    39    1
    58    39    40    1
    59    40    41    1
    60    41    42    1
    61    45   100    1
    62    47   101    1
    63    47   102    1
    64    47   103    1
    65    48   104    1
    66    49   105    1
    67    49   106    1
    68    49   107    1
    69    50   108    1
    70    51    59    1
    71    52   109    1
    72    52   110    1
    73    52   111    1
    74    53    54    1
    75    54    55    2
    76    54    56    1
    77    56   112    1
    78    56   113    1
    79    56   114    1
    80    57   115    1
    81    57   116    1
    82    57   117    1
    83    58   118    1
    84    58   119    1
    85    58   120    1
    86    59   121    1
    87    59   122    1
    88    59   123    1
    89    60    61    2
    90     1    47    1
    91     1    62    1
    92     2    63    1
    93     3    64    1
    94     4    65    1
    95     5     6    1
    96     7     8    2
    97     9    78    1
    98    15    79    1
    99    18    80    1
   100    18    81    1
   101    19    82    1
   102    19    83    1
   103    20    23    1
   104    21    84    1
   105    21    85    1
   106    22    86    1
   107    22    87    1
   108    27    45    1
   109    28    34    1
   110    32    58    1
   111    33    46    2
   112    36    51    1
   113    36    66    1
   114    37    52    1
   115    37    67    1
   116    38    53    1
   117    38    68    1
   118    42    48    1
   119    42    72    1
   120    43    44    2
   121    60    73    1
   122    61    74    1
   123    39    69    1
   124    39    57    1
   125    40    70    1
   126    40    50    1
   127    41    71    1
   128    41    49    1
