@<TRIPOS>MOLECULE
*****
 123 128 0 0 0
SMALL
GASTEIGER

@<TRIPOS>ATOM
     1 C         5.058557   2.038886   0.512383 C.3        1 UNL1     0.0009
     2 C         6.411756   3.002792   -0.310281 C.2        1 UNL1     -0.0787
     3 C         7.685946   3.044239   -0.996407 C.2        1 UNL1     -0.0649
     4 C         8.449136   4.384958   -1.693809 C.2        1 UNL1     -0.0542
     5 C         9.426544   4.808985   -2.627593 C.2        1 UNL1     0.0115
     6 C         10.586261   4.324035   -3.540392 C.3        1 UNL1     -0.0348
     7 C         9.39295   6.3256   -3.1527 C.2        1 UNL1     0.2441
     8 O         10.154905   7.189448   -2.740732 O.2        1 UNL1     -0.2702
     9 N         8.608925   6.534162   -4.300724 N.am        1 UNL1     -0.2772
     10 C         7.304931   6.798737   -3.950122 C.2        1 UNL1     0.1049
     11 C         6.544416   5.748006   -3.701517 C.2        1 UNL1     0.0801
     12 C         5.906501   8.217202   -2.436952 C.ar        1 UNL1     0.0753
     13 C         5.247544   7.00932   -2.042738 C.ar        1 UNL1     0.0305
     14 C         5.457371   5.753946   -2.760415 C.2        1 UNL1     0.0924
     15 N         6.769991   4.443736   -3.935023 N.pl3        1 UNL1     -0.3170
     16 C         5.557487   3.728117   -3.638414 C.3        1 UNL1     0.1275
     17 N         4.863544   4.57479   -2.599516 N.2        1 UNL1     -0.2557
     18 C         4.681407   3.786213   -4.886136 C.3        1 UNL1     0.0016
     19 C         5.469286   3.226961   -6.06005 C.3        1 UNL1     0.0026
     20 N         5.855021   1.856346   -5.754028 N.3        1 UNL1     -0.3018
     21 C         6.649582   1.6915   -4.535066 C.3        1 UNL1     0.0026
     22 C         5.837277   2.255637   -3.368102 C.3        1 UNL1     0.0016
     23 C         6.344688   1.13625   -6.912619 C.3        1 UNL1     0.0012
     24 C         5.196401   0.847699   -7.89238 C.3        1 UNL1     -0.0339
     25 C         5.122127   1.910941   -9.000558 C.3        1 UNL1     -0.0615
     26 C         5.341755   -0.550322   -8.467869 C.3        1 UNL1     -0.0615
     27 C         5.610483   9.433374   -1.825872 C.ar        1 UNL1     0.1347
     28 C         4.649338   9.572657   -0.840554 C.ar        1 UNL1     0.0342
     29 C         4.048426   8.36221   -0.434494 C.ar        1 UNL1     0.1435
     30 C         4.360899   7.131123   -1.012428 C.ar        1 UNL1     0.0774
     31 O         3.016269   8.345378   0.436927 O.3        1 UNL1     -0.4436
     32 C         2.392971   7.06785   0.236196 C.3        1 UNL1     0.3143
     33 C         3.473144   6.189748   -0.36245 C.2        1 UNL1     0.2504
     34 C         4.102425   10.872584   -0.319808 C.3        1 UNL1     -0.0327
     35 O         2.090638   6.533267   1.530827 O.2        1 UNL1     -0.4528
     36 C         -0.994121   4.370143   1.069047 C.3        1 UNL1     0.0854
     37 C         -1.212989   3.139202   0.107589 C.3        1 UNL1     0.0236
     38 C         -1.69759   1.793266   0.832409 C.3        1 UNL1     0.1131
     39 C         -0.909876   1.253262   2.093429 C.3        1 UNL1     0.0200
     40 C         0.758091   1.240082   2.105702 C.3        1 UNL1     0.0661
     41 C         1.75585   0.615127   0.884425 C.3        1 UNL1     0.0091
     42 C         3.419278   1.143978   0.319864 C.3        1 UNL1     0.0661
     43 C         6.850996   8.147404   -3.579457 C.2        1 UNL1     0.2131
     44 O         7.16573   9.112169   -4.252442 O.2        1 UNL1     -0.2851
     45 O         6.329689   10.553761   -2.23686 O.3        1 UNL1     -0.5056
     46 O         3.587332   4.986129   -0.2983 O.2        1 UNL1     -0.2836
     47 C         5.512192   1.565952   1.919696 C.3        1 UNL1     -0.0566
     48 O         3.980334   -0.228731   0.318259 O.3        1 UNL1     -0.3909
     49 C         0.922033   0.383149   -0.355909 C.3        1 UNL1     -0.0577
     50 O         1.265749   2.47944   2.557362 O.3        1 UNL1     -0.3910
     51 O         -1.079128   4.096455   2.449373 O.3        1 UNL1     -0.3753
     52 C         -0.178701   3.125715   -1.065022 C.3        1 UNL1     -0.0564
     53 O         -2.230495   0.759045   -0.115602 O.3        1 UNL1     -0.4608
     54 C         -2.354103   -0.578733   0.154581 C.2        1 UNL1     0.3042
     55 O         -1.714578   -1.50372   -0.344666 O.2        1 UNL1     -0.2512
     56 C         -3.359319   -0.885094   1.228079 C.3        1 UNL1     0.0332
     57 C         -1.660553   1.793095   3.398511 C.3        1 UNL1     -0.0567
     58 C         1.283464   7.283487   -0.819278 C.3        1 UNL1     0.0210
     59 C         -1.503217   5.196192   3.253482 C.3        1 UNL1     0.0372
     60 C         0.276346   5.115797   0.856743 C.2        1 UNL1     -0.0208
     61 C         1.166215   5.575764   1.737259 C.2        1 UNL1     0.0882
     62 H         4.507165   2.975368   0.659622 H        1 UNL1     0.0365
     63 H         6.064088   4.024502   -0.143832 H        1 UNL1     0.0576
     64 H         8.215487   2.130727   -1.276031 H        1 UNL1     0.0615
     65 H         7.896498   5.238117   -1.291077 H        1 UNL1     0.0622
     66 H         -1.801108   5.069837   0.809725 H        1 UNL1     0.0645
     67 H         -2.11068   3.410252   -0.474857 H        1 UNL1     0.0362
     68 H         -2.670415   2.132819   1.219498 H        1 UNL1     0.0741
     69 H         -1.156307   0.209686   2.237056 H        1 UNL1     0.0359
     70 H         0.937093   0.544436   2.94778 H        1 UNL1     0.0600
     71 H         1.887995   -0.420699   1.253965 H        1 UNL1     0.0348
     72 H         3.291366   1.568618   1.326162 H        1 UNL1     0.0602
     73 H         0.360573   5.377414   -0.168787 H        1 UNL1     0.0628
     74 H         1.183637   5.307093   2.794023 H        1 UNL1     0.1022
     75 H         10.721379   3.219308   -3.448977 H        1 UNL1     0.0279
     76 H         10.448154   4.455329   -4.611259 H        1 UNL1     0.0279
     77 H         11.569199   4.690732   -3.210138 H        1 UNL1     0.0279
     78 H         8.607669   5.691559   -4.871772 H        1 UNL1     0.1553
     79 H         7.45675   4.104611   -4.58332 H        1 UNL1     0.1484
     80 H         3.765788   3.209663   -4.707257 H        1 UNL1     0.0317
     81 H         4.368241   4.814408   -5.096835 H        1 UNL1     0.0317
     82 H         6.350256   3.844119   -6.290091 H        1 UNL1     0.0428
     83 H         4.826729   3.279454   -6.93949 H        1 UNL1     0.0428
     84 H         6.857954   0.646515   -4.285269 H        1 UNL1     0.0428
     85 H         7.645119   2.146412   -4.631398 H        1 UNL1     0.0428
     86 H         6.387322   1.9992   -2.481717 H        1 UNL1     0.0317
     87 H         4.901325   1.694574   -3.257198 H        1 UNL1     0.0317
     88 H         7.085944   1.768037   -7.419253 H        1 UNL1     0.0429
     89 H         6.857247   0.210908   -6.619702 H        1 UNL1     0.0429
     90 H         4.247199   0.84848   -7.343538 H        1 UNL1     0.0308
     91 H         6.063324   1.974104   -9.554869 H        1 UNL1     0.0233
     92 H         4.310277   1.687354   -9.69663 H        1 UNL1     0.0233
     93 H         4.918195   2.91321   -8.604698 H        1 UNL1     0.0233
     94 H         4.643997   -0.690437   -9.300538 H        1 UNL1     0.0233
     95 H         6.35623   -0.693276   -8.850449 H        1 UNL1     0.0233
     96 H         5.137841   -1.31552   -7.713641 H        1 UNL1     0.0233
     97 H         3.32822   10.719279   0.42607 H        1 UNL1     0.0280
     98 H         4.874912   11.480223   0.169369 H        1 UNL1     0.0280
     99 H         3.670225   11.45116   -1.152604 H        1 UNL1     0.0280
     100 H         5.798861   11.28056   -2.511828 H        1 UNL1     0.2922
     101 H         4.695404   1.037625   2.411005 H        1 UNL1     0.0236
     102 H         5.907003   2.37268   2.536378 H        1 UNL1     0.0236
     103 H         6.329953   0.828074   1.864961 H        1 UNL1     0.0236
     104 H         4.423304   -0.367324   1.178224 H        1 UNL1     0.2098
     105 H         0.709721   1.282225   -0.928969 H        1 UNL1     0.0234
     106 H         1.291498   -0.404696   -1.012204 H        1 UNL1     0.0234
     107 H         0.0   -0.0   0.0 H        1 UNL1     0.0234
     108 H         1.004204   3.1558   1.903221 H        1 UNL1     0.2098
     109 H         0.858207   3.074916   -0.704533 H        1 UNL1     0.0234
     110 H         -0.355865   2.320337   -1.78594 H        1 UNL1     0.0234
     111 H         -0.239073   4.041211   -1.668486 H        1 UNL1     0.0234
     112 H         -3.40278   -1.964858   1.400024 H        1 UNL1     0.0342
     113 H         -3.146884   -0.350465   2.15268 H        1 UNL1     0.0342
     114 H         -4.347826   -0.560196   0.875292 H        1 UNL1     0.0342
     115 H         -2.706156   1.457723   3.436321 H        1 UNL1     0.0234
     116 H         -1.186966   1.498122   4.336997 H        1 UNL1     0.0234
     117 H         -1.787773   2.88927   3.411046 H        1 UNL1     0.0234
     118 H         0.353516   7.673284   -0.369544 H        1 UNL1     0.0309
     119 H         1.590363   7.944012   -1.63642 H        1 UNL1     0.0309
     120 H         0.963367   6.347463   -1.289918 H        1 UNL1     0.0309
     121 H         -0.761626   5.987486   3.147404 H        1 UNL1     0.0524
     122 H         -2.473642   5.604561   2.925538 H        1 UNL1     0.0524
     123 H         -1.581673   4.892999   4.293681 H        1 UNL1     0.0524
@<TRIPOS>BOND
     1     1     2    1
     2     1    42    1
     3     2     3    2
     4     3     4    1
     5     4     5    2
     6     5     7    1
     7     6    75    1
     8     6    76    1
     9     6    77    1
    10     7     9   am
    11     9    10    1
    12    10    11    2
    13    10    43    1
    14    11    14    1
    15    11    15    1
    16    12    13   ar
    17    12    27   ar
    18    12    43    1
    19    13    14    1
    20    13    30   ar
    21    14    17    2
    22    15    16    1
    23    16    17    1
    24    16    18    1
    25    16    22    1
    26    18    19    1
    27    19    20    1
    28    20    21    1
    29    21    22    1
    30    23    24    1
    31    23    88    1
    32    23    89    1
    33    24    25    1
    34    24    26    1
    35    24    90    1
    36    25    91    1
    37    25    92    1
    38    25    93    1
    39    26    94    1
    40    26    95    1
    41    26    96    1
    42    27    28   ar
    43    28    29   ar
    44    29    30   ar
    45    29    31    1
    46    30    33    1
    47    31    32    1
    48    32    33    1
    49    32    35    1
    50    34    97    1
    51    34    98    1
    52    34    99    1
    53    35    61    1
    54    36    37    1
    55    36    60    1
    56    37    38    1
    57    38    39    1
    58    39    40    1
    59    40    41    1
    60    41    42    1
    61    45   100    1
    62    47   101    1
    63    47   102    1
    64    47   103    1
    65    48   104    1
    66    49   105    1
    67    49   106    1
    68    49   107    1
    69    50   108    1
    70    51    59    1
    71    52   109    1
    72    52   110    1
    73    52   111    1
    74    53    54    1
    75    54    55    2
    76    54    56    1
    77    56   112    1
    78    56   113    1
    79    56   114    1
    80    57   115    1
    81    57   116    1
    82    57   117    1
    83    58   118    1
    84    58   119    1
    85    58   120    1
    86    59   121    1
    87    59   122    1
    88    59   123    1
    89    60    61    2
    90     1    47    1
    91     1    62    1
    92     2    63    1
    93     3    64    1
    94     4    65    1
    95     5     6    1
    96     7     8    2
    97     9    78    1
    98    15    79    1
    99    18    80    1
   100    18    81    1
   101    19    82    1
   102    19    83    1
   103    20    23    1
   104    21    84    1
   105    21    85    1
   106    22    86    1
   107    22    87    1
   108    27    45    1
   109    28    34    1
   110    32    58    1
   111    33    46    2
   112    36    51    1
   113    36    66    1
   114    37    52    1
   115    37    67    1
   116    38    53    1
   117    38    68    1
   118    42    48    1
   119    42    72    1
   120    43    44    2
   121    60    73    1
   122    61    74    1
   123    39    69    1
   124    39    57    1
   125    40    70    1
   126    40    50    1
   127    41    71    1
   128    41    49    1
