@<TRIPOS>MOLECULE
*****
 123 128 0 0 0
SMALL
GASTEIGER

@<TRIPOS>ATOM
     1 C         -2.703849   2.388253   -2.001693 C.3        1 UNL1     0.0009
     2 C         -4.013905   1.857708   -3.201406 C.2        1 UNL1     -0.0787
     3 C         -4.457706   1.642369   -4.562551 C.2        1 UNL1     -0.0649
     4 C         -5.907862   0.942673   -5.08584 C.2        1 UNL1     -0.0542
     5 C         -6.568526   0.312977   -6.169391 C.2        1 UNL1     0.0115
     6 C         -6.461106   -0.023847   -7.682115 C.3        1 UNL1     -0.0348
     7 C         -7.901134   -0.534122   -5.88031 C.2        1 UNL1     0.2441
     8 O         -9.023995   -0.108286   -6.113488 O.2        1 UNL1     -0.2702
     9 N         -7.684068   -1.891782   -5.587405 N.am        1 UNL1     -0.2772
     10 C         -7.477199   -2.06482   -4.238114 C.2        1 UNL1     0.1049
     11 C         -6.249779   -1.842527   -3.80424 C.2        1 UNL1     0.0801
     12 C         -8.417538   -1.477352   -1.995799 C.ar        1 UNL1     0.0753
     13 C         -7.09791   -1.05148   -1.641082 C.ar        1 UNL1     0.0305
     14 C         -5.94546   -1.343346   -2.490625 C.2        1 UNL1     0.0924
     15 N         -5.107401   -1.67516   -4.492345 N.pl3        1 UNL1     -0.3170
     16 C         -4.025255   -1.637184   -3.544836 C.3        1 UNL1     0.1275
     17 N         -4.652875   -1.115926   -2.275149 N.2        1 UNL1     -0.2557
     18 C         -3.624936   -3.081104   -3.257535 C.3        1 UNL1     0.0016
     19 C         -3.283677   -3.762165   -4.573319 C.3        1 UNL1     0.0026
     20 N         -2.194796   -3.033093   -5.208788 N.3        1 UNL1     -0.3018
     21 C         -2.463329   -1.61737   -5.469533 C.3        1 UNL1     0.0026
     22 C         -2.799271   -0.951889   -4.133804 C.3        1 UNL1     0.0016
     23 C         -1.595501   -3.761046   -6.309503 C.3        1 UNL1     0.0012
     24 C         -2.21675   -5.161434   -6.430828 C.3        1 UNL1     -0.0339
     25 C         -1.183943   -6.195354   -6.908716 C.3        1 UNL1     -0.0615
     26 C         -2.845166   -5.56864   -5.109443 C.3        1 UNL1     -0.0615
     27 C         -9.490825   -1.302229   -1.125451 C.ar        1 UNL1     0.1347
     28 C         -9.36095   -0.752284   0.13738 C.ar        1 UNL1     0.0342
     29 C         -8.06182   -0.295779   0.445647 C.ar        1 UNL1     0.1435
     30 C         -6.984292   -0.431661   -0.430532 C.ar        1 UNL1     0.0774
     31 O         -7.749889   0.163216   1.677324 O.3        1 UNL1     -0.4436
     32 C         -6.318777   0.073437   1.74611 C.3        1 UNL1     0.3143
     33 C         -5.8511   0.089735   0.304851 C.2        1 UNL1     0.2504
     34 C         -10.408666   -0.762394   1.215475 C.3        1 UNL1     -0.0327
     35 O         -5.844777   1.282242   2.352218 O.2        1 UNL1     -0.4528
     36 C         -2.651994   0.347441   4.179889 C.3        1 UNL1     0.0854
     37 C         -1.337306   -0.314806   3.613721 C.3        1 UNL1     0.0236
     38 C         0.010922   0.50334   3.904692 C.3        1 UNL1     0.1131
     39 C         0.086628   2.043308   3.551087 C.3        1 UNL1     0.0200
     40 C         -0.524816   2.60942   2.106064 C.3        1 UNL1     0.0661
     41 C         -0.196455   1.969924   0.569563 C.3        1 UNL1     0.0091
     42 C         -1.247338   1.880052   -0.931427 C.3        1 UNL1     0.0661
     43 C         -8.589278   -2.19279   -3.284563 C.2        1 UNL1     0.2131
     44 O         -9.527893   -2.930273   -3.525099 O.2        1 UNL1     -0.2851
     45 O         -10.750539   -1.702963   -1.565872 O.3        1 UNL1     -0.5056
     46 O         -4.790279   0.468692   -0.138887 O.2        1 UNL1     -0.2836
     47 C         -2.580235   3.935671   -1.987661 C.3        1 UNL1     -0.0566
     48 O         -0.190626   2.386435   -1.840303 O.3        1 UNL1     -0.3909
     49 C         0.454844   0.614833   0.733974 C.3        1 UNL1     -0.0577
     50 O         -1.903124   2.899259   2.224314 O.3        1 UNL1     -0.3910
     51 O         -2.508397   1.645225   4.711459 O.3        1 UNL1     -0.3753
     52 C         -1.591414   -1.041275   2.252611 C.3        1 UNL1     -0.0564
     53 O         1.260002   -0.296687   3.676477 O.3        1 UNL1     -0.4608
     54 C         2.427985   0.18637   3.146948 C.2        1 UNL1     0.3042
     55 O         3.550432   0.141391   3.648872 O.2        1 UNL1     -0.2512
     56 C         2.267493   0.776291   1.774742 C.3        1 UNL1     0.0332
     57 C         -0.263957   2.861126   4.880161 C.3        1 UNL1     -0.0567
     58 C         -5.996215   -1.308967   2.359658 C.3        1 UNL1     0.0210
     59 C         -2.599043   1.724007   6.133233 C.3        1 UNL1     0.0372
     60 C         -3.792046   0.398648   3.224473 C.2        1 UNL1     -0.0208
     61 C         -4.637878   1.389879   2.940264 C.2        1 UNL1     0.0882
     62 H         -3.37671   2.120585   -1.17809 H        1 UNL1     0.0365
     63 H         -4.843331   1.654987   -2.520651 H        1 UNL1     0.0576
     64 H         -3.784398   1.776414   -5.412137 H        1 UNL1     0.0615
     65 H         -6.529427   0.92768   -4.186443 H        1 UNL1     0.0622
     66 H         -2.96974   -0.320807   4.992617 H        1 UNL1     0.0645
     67 H         -1.193029   -1.207783   4.246443 H        1 UNL1     0.0362
     68 H         0.021367   0.455608   5.004299 H        1 UNL1     0.0741
     69 H         1.126323   2.338038   3.500331 H        1 UNL1     0.0359
     70 H         -0.035812   3.601624   2.067745 H        1 UNL1     0.0600
     71 H         0.671842   2.594569   0.28175 H        1 UNL1     0.0348
     72 H         -1.693644   2.657839   -0.294894 H        1 UNL1     0.0602
     73 H         -3.960337   -0.572267   2.829185 H        1 UNL1     0.0628
     74 H         -4.504189   2.424626   3.257539 H        1 UNL1     0.1022
     75 H         -6.195423   -1.098839   -7.82647 H        1 UNL1     0.0279
     76 H         -7.37336   0.072522   -8.266559 H        1 UNL1     0.0279
     77 H         -5.611946   0.476747   -8.170003 H        1 UNL1     0.0279
     78 H         -6.848435   -2.216353   -6.069535 H        1 UNL1     0.1553
     79 H         -4.984914   -1.960918   -5.446427 H        1 UNL1     0.1484
     80 H         -2.769827   -3.085167   -2.570848 H        1 UNL1     0.0317
     81 H         -4.434823   -3.618657   -2.752787 H        1 UNL1     0.0317
     82 H         -4.158098   -3.82586   -5.237579 H        1 UNL1     0.0428
     83 H         -3.002812   -4.790894   -4.345544 H        1 UNL1     0.0428
     84 H         -1.602837   -1.074806   -5.873254 H        1 UNL1     0.0428
     85 H         -3.244487   -1.482863   -6.230464 H        1 UNL1     0.0428
     86 H         -2.858251   0.100458   -4.341347 H        1 UNL1     0.0317
     87 H         -1.943938   -1.028445   -3.451425 H        1 UNL1     0.0317
     88 H         -1.798069   -3.207409   -7.235649 H        1 UNL1     0.0429
     89 H         -0.504742   -3.819702   -6.201901 H        1 UNL1     0.0429
     90 H         -3.038699   -5.128164   -7.155744 H        1 UNL1     0.0308
     91 H         -0.862695   -5.99174   -7.934602 H        1 UNL1     0.0233
     92 H         -0.30983   -6.199562   -6.253339 H        1 UNL1     0.0233
     93 H         -1.58023   -7.21792   -6.896483 H        1 UNL1     0.0233
     94 H         -2.935866   -6.658861   -5.054417 H        1 UNL1     0.0233
     95 H         -2.214106   -5.240507   -4.278748 H        1 UNL1     0.0233
     96 H         -3.840922   -5.132568   -4.989951 H        1 UNL1     0.0233
     97 H         -10.060247   -1.256321   2.117623 H        1 UNL1     0.0280
     98 H         -10.698159   0.251646   1.52072 H        1 UNL1     0.0280
     99 H         -11.304466   -1.293781   0.854553 H        1 UNL1     0.0280
     100 H         -10.739096   -2.310404   -2.284556 H        1 UNL1     0.2922
     101 H         -2.977791   4.327794   -1.051794 H        1 UNL1     0.0236
     102 H         -3.035901   4.409978   -2.856214 H        1 UNL1     0.0236
     103 H         -1.528622   4.267297   -2.005774 H        1 UNL1     0.0236
     104 H         0.635422   2.455353   -1.322745 H        1 UNL1     0.2098
     105 H         1.527277   0.607438   0.556087 H        1 UNL1     0.0234
     106 H         0.22394   0.109365   1.671584 H        1 UNL1     0.0234
     107 H         0.0   -0.0   0.0 H        1 UNL1     0.0234
     108 H         -2.339639   2.56791   1.415963 H        1 UNL1     0.2098
     109 H         -2.327405   -1.852143   2.344932 H        1 UNL1     0.0234
     110 H         -1.895891   -0.359566   1.451169 H        1 UNL1     0.0234
     111 H         -0.676858   -1.512295   1.868326 H        1 UNL1     0.0234
     112 H         2.822964   1.716585   1.706591 H        1 UNL1     0.0342
     113 H         2.574557   0.08354   0.99266 H        1 UNL1     0.0342
     114 H         1.203297   1.001873   1.620581 H        1 UNL1     0.0342
     115 H         0.62569   3.340509   5.311332 H        1 UNL1     0.0234
     116 H         -1.018656   3.637152   4.73782 H        1 UNL1     0.0234
     117 H         -0.588107   2.220469   5.71827 H        1 UNL1     0.0234
     118 H         -5.579557   -1.223348   3.378516 H        1 UNL1     0.0309
     119 H         -6.859603   -1.981501   2.381145 H        1 UNL1     0.0309
     120 H         -5.211659   -1.840194   1.809771 H        1 UNL1     0.0309
     121 H         -2.354624   2.745578   6.423076 H        1 UNL1     0.0524
     122 H         -3.61655   1.509267   6.500118 H        1 UNL1     0.0524
     123 H         -1.904003   1.027357   6.593335 H        1 UNL1     0.0524
@<TRIPOS>BOND
     1     1     2    1
     2     1    42    1
     3     2     3    2
     4     3     4    1
     5     4     5    2
     6     5     7    1
     7     6    75    1
     8     6    76    1
     9     6    77    1
    10     7     9   am
    11     9    10    1
    12    10    11    2
    13    10    43    1
    14    11    14    1
    15    11    15    1
    16    12    13   ar
    17    12    27   ar
    18    12    43    1
    19    13    14    1
    20    13    30   ar
    21    14    17    2
    22    15    16    1
    23    16    17    1
    24    16    18    1
    25    16    22    1
    26    18    19    1
    27    19    20    1
    28    20    21    1
    29    21    22    1
    30    23    24    1
    31    23    88    1
    32    23    89    1
    33    24    25    1
    34    24    26    1
    35    24    90    1
    36    25    91    1
    37    25    92    1
    38    25    93    1
    39    26    94    1
    40    26    95    1
    41    26    96    1
    42    27    28   ar
    43    28    29   ar
    44    29    30   ar
    45    29    31    1
    46    30    33    1
    47    31    32    1
    48    32    33    1
    49    32    35    1
    50    34    97    1
    51    34    98    1
    52    34    99    1
    53    35    61    1
    54    36    37    1
    55    36    60    1
    56    37    38    1
    57    38    39    1
    58    39    40    1
    59    40    41    1
    60    41    42    1
    61    45   100    1
    62    47   101    1
    63    47   102    1
    64    47   103    1
    65    48   104    1
    66    49   105    1
    67    49   106    1
    68    49   107    1
    69    50   108    1
    70    51    59    1
    71    52   109    1
    72    52   110    1
    73    52   111    1
    74    53    54    1
    75    54    55    2
    76    54    56    1
    77    56   112    1
    78    56   113    1
    79    56   114    1
    80    57   115    1
    81    57   116    1
    82    57   117    1
    83    58   118    1
    84    58   119    1
    85    58   120    1
    86    59   121    1
    87    59   122    1
    88    59   123    1
    89    60    61    2
    90     1    47    1
    91     1    62    1
    92     2    63    1
    93     3    64    1
    94     4    65    1
    95     5     6    1
    96     7     8    2
    97     9    78    1
    98    15    79    1
    99    18    80    1
   100    18    81    1
   101    19    82    1
   102    19    83    1
   103    20    23    1
   104    21    84    1
   105    21    85    1
   106    22    86    1
   107    22    87    1
   108    27    45    1
   109    28    34    1
   110    32    58    1
   111    33    46    2
   112    36    51    1
   113    36    66    1
   114    37    52    1
   115    37    67    1
   116    38    53    1
   117    38    68    1
   118    42    48    1
   119    42    72    1
   120    43    44    2
   121    60    73    1
   122    61    74    1
   123    39    69    1
   124    39    57    1
   125    40    70    1
   126    40    50    1
   127    41    71    1
   128    41    49    1
