@<TRIPOS>MOLECULE
*****
 123 128 0 0 0
SMALL
GASTEIGER

@<TRIPOS>ATOM
     1 C         5.162515   0.967336   -1.510519 C.3        1 UNL1     0.0009
     2 C         6.873232   0.259782   -1.609762 C.2        1 UNL1     -0.0787
     3 C         8.235952   0.195467   -1.125092 C.2        1 UNL1     -0.0649
     4 C         9.464096   -0.863995   -1.610435 C.2        1 UNL1     -0.0542
     5 C         10.706362   -1.443331   -1.25235 C.2        1 UNL1     0.0115
     6 C         11.87562   -1.37809   -0.231614 C.3        1 UNL1     -0.0348
     7 C         11.194542   -2.768282   -2.016008 C.2        1 UNL1     0.2441
     8 O         12.040713   -2.753594   -2.899357 O.2        1 UNL1     -0.2702
     9 N         10.77913   -3.974844   -1.426271 N.am        1 UNL1     -0.2772
     10 C         9.5462   -4.346728   -1.910945 C.2        1 UNL1     0.1049
     11 C         8.500143   -3.781565   -1.335985 C.2        1 UNL1     0.0801
     12 C         8.260484   -4.656038   -4.03429 C.ar        1 UNL1     0.0753
     13 C         7.234736   -3.855639   -3.437792 C.ar        1 UNL1     0.0305
     14 C         7.266516   -3.503169   -2.020116 C.2        1 UNL1     0.0924
     15 N         8.422341   -3.053895   -0.208612 N.pl3        1 UNL1     -0.3170
     16 C         7.029852   -2.820871   0.068747 C.3        1 UNL1     0.1275
     17 N         6.363065   -2.861551   -1.284569 N.2        1 UNL1     -0.2557
     18 C         6.511585   -4.035456   0.832871 C.3        1 UNL1     0.0016
     19 C         7.373041   -4.235933   2.069517 C.3        1 UNL1     0.0026
     20 N         7.303627   -3.033268   2.887934 N.3        1 UNL1     -0.3018
     21 C         7.724071   -1.800592   2.218527 C.3        1 UNL1     0.0026
     22 C         6.842614   -1.616508   0.981983 C.3        1 UNL1     0.0016
     23 C         7.839858   -3.226262   4.220545 C.3        1 UNL1     0.0012
     24 C         9.365398   -3.040566   4.219378 C.3        1 UNL1     -0.0339
     25 C         10.046257   -3.97356   5.234272 C.3        1 UNL1     -0.0615
     26 C         9.913708   -3.243964   2.817677 C.3        1 UNL1     -0.0615
     27 C         8.162185   -5.088682   -5.354622 C.ar        1 UNL1     0.1347
     28 C         7.071397   -4.818718   -6.161685 C.ar        1 UNL1     0.0342
     29 C         6.096631   -3.988272   -5.568935 C.ar        1 UNL1     0.1435
     30 C         6.198794   -3.517394   -4.259333 C.ar        1 UNL1     0.0774
     31 O         4.924488   -3.725453   -6.187008 O.3        1 UNL1     -0.4436
     32 C         4.050827   -3.28614   -5.136012 C.3        1 UNL1     0.3143
     33 C         4.969855   -2.783321   -4.041126 C.2        1 UNL1     0.2504
     34 C         6.780844   -5.453956   -7.492908 C.3        1 UNL1     -0.0327
     35 O         3.328914   -2.15072   -5.628876 O.2        1 UNL1     -0.4528
     36 C         -0.023722   -2.196709   -3.849604 C.3        1 UNL1     0.0854
     37 C         -0.331047   -2.17909   -2.302748 C.3        1 UNL1     0.0236
     38 C         -1.305854   -1.000462   -1.82074 C.3        1 UNL1     0.1131
     39 C         -1.000147   0.493155   -2.242547 C.3        1 UNL1     0.0200
     40 C         0.556347   1.088942   -2.173237 C.3        1 UNL1     0.0661
     41 C         1.608079   0.969084   -0.847678 C.3        1 UNL1     0.0091
     42 C         3.435648   0.821247   -0.788197 C.3        1 UNL1     0.0661
     43 C         9.390134   -5.085234   -3.17293 C.2        1 UNL1     0.2131
     44 O         10.093634   -6.048909   -3.416149 O.2        1 UNL1     -0.2851
     45 O         9.225242   -5.825384   -5.872906 O.3        1 UNL1     -0.5056
     46 O         4.745616   -1.948486   -3.193411 O.2        1 UNL1     -0.2836
     47 C         5.13916   2.405691   -2.094106 C.3        1 UNL1     -0.0566
     48 O         3.600781   1.87052   0.246633 O.3        1 UNL1     -0.3909
     49 C         1.051442   -0.044843   0.126797 C.3        1 UNL1     -0.0577
     50 O         1.253847   0.809105   -3.370278 O.3        1 UNL1     -0.3910
     51 O         -0.493152   -1.088429   -4.583622 O.3        1 UNL1     -0.3753
     52 C         0.904471   -2.633313   -1.458873 C.3        1 UNL1     -0.0564
     53 O         -1.858788   -1.205049   -0.440618 O.3        1 UNL1     -0.4608
     54 C         -2.069529   -0.217635   0.485952 C.2        1 UNL1     0.3042
     55 O         -1.590114   0.915486   0.492062 O.2        1 UNL1     -0.2512
     56 C         -3.046971   -0.600109   1.560677 C.3        1 UNL1     0.0332
     57 C         -1.862054   0.810558   -3.551953 C.3        1 UNL1     -0.0567
     58 C         3.311009   -4.545242   -4.627231 C.3        1 UNL1     0.0210
     59 C         -1.60696   -1.360286   -5.432969 C.3        1 UNL1     0.0372
     60 C         1.411561   -2.369262   -4.203652 C.2        1 UNL1     -0.0208
     61 C         2.163506   -1.730113   -5.100765 C.2        1 UNL1     0.0882
     62 H         4.858211   0.295376   -2.322048 H        1 UNL1     0.0365
     63 H         6.77779   -0.381129   -2.488735 H        1 UNL1     0.0576
     64 H         8.556304   0.752764   -0.241971 H        1 UNL1     0.0615
     65 H         9.077889   -1.305428   -2.533183 H        1 UNL1     0.0622
     66 H         -0.536147   -3.094669   -4.222613 H        1 UNL1     0.0645
     67 H         -0.966754   -3.06776   -2.145582 H        1 UNL1     0.0362
     68 H         -2.217186   -1.278564   -2.371789 H        1 UNL1     0.0741
     69 H         -1.538485   1.158744   -1.58104 H        1 UNL1     0.0359
     70 H         0.34727   2.174732   -2.222295 H        1 UNL1     0.0600
     71 H         1.374463   1.919547   -0.329027 H        1 UNL1     0.0348
     72 H         3.195745   1.217265   -1.78566 H        1 UNL1     0.0602
     73 H         1.795393   -3.221683   -3.700363 H        1 UNL1     0.0628
     74 H         1.865866   -0.816125   -5.615813 H        1 UNL1     0.1022
     75 H         11.654308   -0.633814   0.570949 H        1 UNL1     0.0279
     76 H         12.074247   -2.28374   0.337081 H        1 UNL1     0.0279
     77 H         12.796339   -0.961507   -0.665705 H        1 UNL1     0.0279
     78 H         10.687903   -3.850193   -0.420181 H        1 UNL1     0.1553
     79 H         9.125903   -3.058384   0.506869 H        1 UNL1     0.1484
     80 H         5.460931   -3.868559   1.099399 H        1 UNL1     0.0317
     81 H         6.537015   -4.932699   0.205208 H        1 UNL1     0.0317
     82 H         8.413688   -4.476018   1.806221 H        1 UNL1     0.0428
     83 H         6.987299   -5.107913   2.598577 H        1 UNL1     0.0428
     84 H         7.587039   -0.901862   2.827887 H        1 UNL1     0.0428
     85 H         8.798614   -1.806087   1.989087 H        1 UNL1     0.0428
     86 H         7.086457   -0.644649   0.594659 H        1 UNL1     0.0317
     87 H         5.792633   -1.513951   1.28218 H        1 UNL1     0.0317
     88 H         7.396131   -2.469127   4.880202 H        1 UNL1     0.0429
     89 H         7.560764   -4.208   4.624365 H        1 UNL1     0.0429
     90 H         9.601189   -2.003401   4.485657 H        1 UNL1     0.0308
     91 H         9.654141   -4.992524   5.163145 H        1 UNL1     0.0233
     92 H         11.127102   -3.993366   5.076189 H        1 UNL1     0.0233
     93 H         9.894637   -3.645917   6.269886 H        1 UNL1     0.0233
     94 H         10.978128   -3.498721   2.861763 H        1 UNL1     0.0233
     95 H         9.389578   -4.069206   2.327548 H        1 UNL1     0.0233
     96 H         9.799093   -2.342249   2.209612 H        1 UNL1     0.0233
     97 H         7.470565   -5.120692   -8.262616 H        1 UNL1     0.0280
     98 H         6.873983   -6.547309   -7.45885 H        1 UNL1     0.0280
     99 H         5.757504   -5.194594   -7.810082 H        1 UNL1     0.0280
     100 H         9.218064   -6.737935   -5.643075 H        1 UNL1     0.2922
     101 H         4.118323   2.67719   -2.362126 H        1 UNL1     0.0236
     102 H         5.830312   2.542374   -2.925136 H        1 UNL1     0.0236
     103 H         5.442892   3.159891   -1.349041 H        1 UNL1     0.0236
     104 H         4.544403   2.124143   0.261568 H        1 UNL1     0.2098
     105 H         1.365915   -1.068312   -0.061433 H        1 UNL1     0.0234
     106 H         1.194535   0.207149   1.177488 H        1 UNL1     0.0234
     107 H         -0.0   0.0   0.0 H        1 UNL1     0.0234
     108 H         1.417595   1.662083   -3.816802 H        1 UNL1     0.2098
     109 H         1.216463   -3.659713   -1.69736 H        1 UNL1     0.0234
     110 H         1.761932   -1.958369   -1.5535 H        1 UNL1     0.0234
     111 H         0.682431   -2.63245   -0.383399 H        1 UNL1     0.0234
     112 H         -2.69584   -0.234393   2.530371 H        1 UNL1     0.0342
     113 H         -4.051999   -0.239081   1.347557 H        1 UNL1     0.0342
     114 H         -3.090756   -1.696832   1.610128 H        1 UNL1     0.0342
     115 H         -2.836514   1.252452   -3.302265 H        1 UNL1     0.0234
     116 H         -1.367841   1.482191   -4.256731 H        1 UNL1     0.0234
     117 H         -2.173006   -0.093226   -4.103701 H        1 UNL1     0.0234
     118 H         3.067154   -5.242696   -5.447657 H        1 UNL1     0.0309
     119 H         3.863892   -5.084265   -3.851359 H        1 UNL1     0.0309
     120 H         2.331897   -4.311561   -4.194982 H        1 UNL1     0.0309
     121 H         -2.043803   -0.404178   -5.719991 H        1 UNL1     0.0524
     122 H         -1.30997   -1.880817   -6.358648 H        1 UNL1     0.0524
     123 H         -2.340923   -1.965292   -4.90822 H        1 UNL1     0.0524
@<TRIPOS>BOND
     1     1     2    1
     2     1    42    1
     3     2     3    2
     4     3     4    1
     5     4     5    2
     6     5     7    1
     7     6    75    1
     8     6    76    1
     9     6    77    1
    10     7     9   am
    11     9    10    1
    12    10    11    2
    13    10    43    1
    14    11    14    1
    15    11    15    1
    16    12    13   ar
    17    12    27   ar
    18    12    43    1
    19    13    14    1
    20    13    30   ar
    21    14    17    2
    22    15    16    1
    23    16    17    1
    24    16    18    1
    25    16    22    1
    26    18    19    1
    27    19    20    1
    28    20    21    1
    29    21    22    1
    30    23    24    1
    31    23    88    1
    32    23    89    1
    33    24    25    1
    34    24    26    1
    35    24    90    1
    36    25    91    1
    37    25    92    1
    38    25    93    1
    39    26    94    1
    40    26    95    1
    41    26    96    1
    42    27    28   ar
    43    28    29   ar
    44    29    30   ar
    45    29    31    1
    46    30    33    1
    47    31    32    1
    48    32    33    1
    49    32    35    1
    50    34    97    1
    51    34    98    1
    52    34    99    1
    53    35    61    1
    54    36    37    1
    55    36    60    1
    56    37    38    1
    57    38    39    1
    58    39    40    1
    59    40    41    1
    60    41    42    1
    61    45   100    1
    62    47   101    1
    63    47   102    1
    64    47   103    1
    65    48   104    1
    66    49   105    1
    67    49   106    1
    68    49   107    1
    69    50   108    1
    70    51    59    1
    71    52   109    1
    72    52   110    1
    73    52   111    1
    74    53    54    1
    75    54    55    2
    76    54    56    1
    77    56   112    1
    78    56   113    1
    79    56   114    1
    80    57   115    1
    81    57   116    1
    82    57   117    1
    83    58   118    1
    84    58   119    1
    85    58   120    1
    86    59   121    1
    87    59   122    1
    88    59   123    1
    89    60    61    2
    90     1    47    1
    91     1    62    1
    92     2    63    1
    93     3    64    1
    94     4    65    1
    95     5     6    1
    96     7     8    2
    97     9    78    1
    98    15    79    1
    99    18    80    1
   100    18    81    1
   101    19    82    1
   102    19    83    1
   103    20    23    1
   104    21    84    1
   105    21    85    1
   106    22    86    1
   107    22    87    1
   108    27    45    1
   109    28    34    1
   110    32    58    1
   111    33    46    2
   112    36    51    1
   113    36    66    1
   114    37    52    1
   115    37    67    1
   116    38    53    1
   117    38    68    1
   118    42    48    1
   119    42    72    1
   120    43    44    2
   121    60    73    1
   122    61    74    1
   123    39    69    1
   124    39    57    1
   125    40    70    1
   126    40    50    1
   127    41    71    1
   128    41    49    1
