@<TRIPOS>MOLECULE
*****
 123 128 0 0 0
SMALL
GASTEIGER

@<TRIPOS>ATOM
     1 C         4.052931   0.513247   3.649942 C.3        1 UNL1     0.0009
     2 C         5.775086   0.005321   4.111713 C.2        1 UNL1     -0.0787
     3 C         6.675922   -0.798845   4.910373 C.2        1 UNL1     -0.0649
     4 C         8.359648   -0.917186   4.778396 C.2        1 UNL1     -0.0542
     5 C         9.495924   -1.705014   5.087075 C.2        1 UNL1     0.0115
     6 C         9.99147   -2.929871   5.904071 C.3        1 UNL1     -0.0348
     7 C         10.860673   -1.449299   4.281433 C.2        1 UNL1     0.2441
     8 O         11.803773   -0.827219   4.750586 O.2        1 UNL1     -0.2702
     9 N         11.001469   -2.207116   3.10583 N.am        1 UNL1     -0.2772
     10 C         10.438622   -1.546268   2.038214 C.2        1 UNL1     0.1049
     11 C         9.133184   -1.682733   1.89182 C.2        1 UNL1     0.0801
     12 C         10.373783   0.675882   0.8914 C.ar        1 UNL1     0.0753
     13 C         8.947124   0.5744   0.945739 C.ar        1 UNL1     0.0305
     14 C         8.28255   -0.669032   1.329497 C.2        1 UNL1     0.0924
     15 N         8.280861   -2.531923   2.490944 N.pl3        1 UNL1     -0.3170
     16 C         6.998613   -2.389929   1.853815 C.3        1 UNL1     0.1275
     17 N         6.987343   -0.971135   1.339403 N.2        1 UNL1     -0.2557
     18 C         7.004788   -3.28762   0.620196 C.3        1 UNL1     0.0016
     19 C         7.337015   -4.706721   1.053054 C.3        1 UNL1     0.0026
     20 N         6.338269   -5.147684   2.016946 N.3        1 UNL1     -0.3018
     21 C         6.214791   -4.30993   3.211639 C.3        1 UNL1     0.0026
     22 C         5.876337   -2.890203   2.753688 C.3        1 UNL1     0.0016
     23 C         6.385892   -6.57478   2.265489 C.3        1 UNL1     0.0012
     24 C         5.890427   -7.35245   1.036058 C.3        1 UNL1     -0.0339
     25 C         7.062938   -7.924755   0.222583 C.3        1 UNL1     -0.0615
     26 C         4.92268   -8.44191   1.464217 C.3        1 UNL1     -0.0615
     27 C         10.997844   1.824126   0.409527 C.ar        1 UNL1     0.1347
     28 C         10.303255   2.915567   -0.080731 C.ar        1 UNL1     0.0342
     29 C         8.900127   2.812753   0.028019 C.ar        1 UNL1     0.1435
     30 C         8.261762   1.683363   0.542013 C.ar        1 UNL1     0.0774
     31 O         8.081659   3.745609   -0.505737 O.3        1 UNL1     -0.4436
     32 C         6.809921   3.089516   -0.620181 C.3        1 UNL1     0.3143
     33 C         6.849356   1.968558   0.398696 C.2        1 UNL1     0.2504
     34 C         10.896325   4.069419   -0.840331 C.3        1 UNL1     -0.0327
     35 O         5.810651   4.017744   -0.180744 O.2        1 UNL1     -0.4528
     36 C         2.668356   3.16513   -2.131928 C.3        1 UNL1     0.0854
     37 C         1.884937   1.798575   -2.211335 C.3        1 UNL1     0.0236
     38 C         0.32935   1.888299   -1.832068 C.3        1 UNL1     0.1131
     39 C         -0.110981   2.58936   -0.484147 C.3        1 UNL1     0.0200
     40 C         0.71978   2.294716   0.931995 C.3        1 UNL1     0.0661
     41 C         1.121192   0.766364   1.548939 C.3        1 UNL1     0.0091
     42 C         2.569411   0.224353   2.536 C.3        1 UNL1     0.0661
     43 C         11.166318   -0.51656   1.281566 C.2        1 UNL1     0.2131
     44 O         12.314473   -0.708056   0.924064 O.2        1 UNL1     -0.2851
     45 O         12.39055   1.859587   0.433002 O.3        1 UNL1     -0.5056
     46 O         5.924701   1.444211   0.978289 O.2        1 UNL1     -0.2836
     47 C         3.449559   1.432245   4.746011 C.3        1 UNL1     -0.0566
     48 O         1.757375   -0.515753   3.531971 O.3        1 UNL1     -0.3909
     49 C         0.914606   -0.267338   0.464377 C.3        1 UNL1     -0.0577
     50 O         1.821225   3.171371   1.058556 O.3        1 UNL1     -0.3910
     51 O         1.959961   4.249953   -1.576261 O.3        1 UNL1     -0.3753
     52 C         2.777713   0.590101   -1.778335 C.3        1 UNL1     -0.0564
     53 O         -0.46037   0.68117   -2.246204 O.3        1 UNL1     -0.4608
     54 C         -1.486071   0.11876   -1.532368 C.2        1 UNL1     0.3042
     55 O         -2.635218   -0.093787   -1.917235 O.2        1 UNL1     -0.2512
     56 C         -1.088889   -0.317441   -0.150815 C.3        1 UNL1     0.0332
     57 C         -0.482314   4.10649   -0.828534 C.3        1 UNL1     -0.0567
     58 C         6.761483   2.47361   -2.03787 C.3        1 UNL1     0.0210
     59 C         1.560062   5.248134   -2.514122 C.3        1 UNL1     0.0372
     60 C         3.976699   3.099796   -1.425435 C.2        1 UNL1     -0.0208
     61 C         4.51029   3.917447   -0.516879 C.2        1 UNL1     0.0882
     62 H         4.474171   1.175116   2.883654 H        1 UNL1     0.0365
     63 H         6.361452   0.686923   3.491985 H        1 UNL1     0.0576
     64 H         6.304799   -1.5609   5.59932 H        1 UNL1     0.0615
     65 H         8.631008   -0.072303   4.139633 H        1 UNL1     0.0622
     66 H         2.902409   3.410268   -3.177477 H        1 UNL1     0.0645
     67 H         1.835064   1.580572   -3.292329 H        1 UNL1     0.0362
     68 H         -0.017566   2.556238   -2.635205 H        1 UNL1     0.0741
     69 H         -1.116216   2.272995   -0.239557 H        1 UNL1     0.0359
     70 H         -0.017836   2.669364   1.667264 H        1 UNL1     0.0600
     71 H         0.240901   0.581579   2.195391 H        1 UNL1     0.0348
     72 H         2.518303   1.317183   2.647469 H        1 UNL1     0.0602
     73 H         4.560253   2.317123   -1.842732 H        1 UNL1     0.0628
     74 H         3.962504   4.70569   0.000654 H        1 UNL1     0.1022
     75 H         9.612112   -2.88075   6.953218 H        1 UNL1     0.0279
     76 H         9.642954   -3.906054   5.574414 H        1 UNL1     0.0279
     77 H         11.079277   -2.920972   6.066234 H        1 UNL1     0.0279
     78 H         10.512312   -3.093685   3.209742 H        1 UNL1     0.1553
     79 H         8.567668   -3.374834   2.953735 H        1 UNL1     0.1484
     80 H         6.022209   -3.236304   0.135768 H        1 UNL1     0.0317
     81 H         7.735851   -2.936193   -0.115805 H        1 UNL1     0.0317
     82 H         8.351038   -4.777304   1.473397 H        1 UNL1     0.0428
     83 H         7.33789   -5.329584   0.158018 H        1 UNL1     0.0428
     84 H         5.404555   -4.616466   3.880492 H        1 UNL1     0.0428
     85 H         7.113964   -4.360547   3.841117 H        1 UNL1     0.0428
     86 H         5.663369   -2.339526   3.651122 H        1 UNL1     0.0317
     87 H         4.917824   -2.886979   2.220455 H        1 UNL1     0.0317
     88 H         7.430298   -6.853322   2.457647 H        1 UNL1     0.0429
     89 H         5.811457   -6.842871   3.16155 H        1 UNL1     0.0429
     90 H         5.315144   -6.6771   0.391725 H        1 UNL1     0.0308
     91 H         6.706946   -8.531427   -0.615463 H        1 UNL1     0.0233
     92 H         7.696314   -7.121009   -0.160087 H        1 UNL1     0.0233
     93 H         7.7155   -8.567391   0.825922 H        1 UNL1     0.0233
     94 H         4.764873   -9.150609   0.644046 H        1 UNL1     0.0233
     95 H         5.334432   -8.994939   2.313087 H        1 UNL1     0.0233
     96 H         3.953565   -8.024469   1.751495 H        1 UNL1     0.0233
     97 H         10.451435   4.180979   -1.824637 H        1 UNL1     0.0280
     98 H         10.737268   5.027432   -0.328306 H        1 UNL1     0.0280
     99 H         11.979709   3.910129   -0.966822 H        1 UNL1     0.0280
     100 H         12.774669   1.612759   1.255893 H        1 UNL1     0.2922
     101 H         2.866412   2.226245   4.280007 H        1 UNL1     0.0236
     102 H         4.196408   1.824166   5.435648 H        1 UNL1     0.0236
     103 H         2.729912   0.895475   5.386463 H        1 UNL1     0.0236
     104 H         0.945791   0.003503   3.695297 H        1 UNL1     0.2098
     105 H         1.686474   -0.275554   -0.301106 H        1 UNL1     0.0234
     106 H         0.732278   -1.278551   0.827877 H        1 UNL1     0.0234
     107 H         0.0   0.0   0.0 H        1 UNL1     0.0234
     108 H         2.394408   2.816892   1.765361 H        1 UNL1     0.2098
     109 H         3.661334   0.474256   -2.421379 H        1 UNL1     0.0234
     110 H         3.091451   0.640575   -0.730115 H        1 UNL1     0.0234
     111 H         2.232926   -0.360872   -1.847649 H        1 UNL1     0.0234
     112 H         -1.982732   -0.49058   0.456156 H        1 UNL1     0.0342
     113 H         -0.450991   -1.199853   -0.167495 H        1 UNL1     0.0342
     114 H         -0.517886   0.497311   0.315338 H        1 UNL1     0.0342
     115 H         -1.290708   4.484654   -0.187692 H        1 UNL1     0.0234
     116 H         0.356848   4.799567   -0.741926 H        1 UNL1     0.0234
     117 H         -0.927272   4.23394   -1.830387 H        1 UNL1     0.0234
     118 H         6.035611   2.990386   -2.689835 H        1 UNL1     0.0309
     119 H         7.737922   2.456173   -2.532306 H        1 UNL1     0.0309
     120 H         6.404905   1.43778   -2.03421 H        1 UNL1     0.0309
     121 H         0.927876   5.96183   -1.986547 H        1 UNL1     0.0524
     122 H         2.418992   5.805136   -2.924031 H        1 UNL1     0.0524
     123 H         1.010141   4.794771   -3.333965 H        1 UNL1     0.0524
@<TRIPOS>BOND
     1     1     2    1
     2     1    42    1
     3     2     3    2
     4     3     4    1
     5     4     5    2
     6     5     7    1
     7     6    75    1
     8     6    76    1
     9     6    77    1
    10     7     9   am
    11     9    10    1
    12    10    11    2
    13    10    43    1
    14    11    14    1
    15    11    15    1
    16    12    13   ar
    17    12    27   ar
    18    12    43    1
    19    13    14    1
    20    13    30   ar
    21    14    17    2
    22    15    16    1
    23    16    17    1
    24    16    18    1
    25    16    22    1
    26    18    19    1
    27    19    20    1
    28    20    21    1
    29    21    22    1
    30    23    24    1
    31    23    88    1
    32    23    89    1
    33    24    25    1
    34    24    26    1
    35    24    90    1
    36    25    91    1
    37    25    92    1
    38    25    93    1
    39    26    94    1
    40    26    95    1
    41    26    96    1
    42    27    28   ar
    43    28    29   ar
    44    29    30   ar
    45    29    31    1
    46    30    33    1
    47    31    32    1
    48    32    33    1
    49    32    35    1
    50    34    97    1
    51    34    98    1
    52    34    99    1
    53    35    61    1
    54    36    37    1
    55    36    60    1
    56    37    38    1
    57    38    39    1
    58    39    40    1
    59    40    41    1
    60    41    42    1
    61    45   100    1
    62    47   101    1
    63    47   102    1
    64    47   103    1
    65    48   104    1
    66    49   105    1
    67    49   106    1
    68    49   107    1
    69    50   108    1
    70    51    59    1
    71    52   109    1
    72    52   110    1
    73    52   111    1
    74    53    54    1
    75    54    55    2
    76    54    56    1
    77    56   112    1
    78    56   113    1
    79    56   114    1
    80    57   115    1
    81    57   116    1
    82    57   117    1
    83    58   118    1
    84    58   119    1
    85    58   120    1
    86    59   121    1
    87    59   122    1
    88    59   123    1
    89    60    61    2
    90     1    47    1
    91     1    62    1
    92     2    63    1
    93     3    64    1
    94     4    65    1
    95     5     6    1
    96     7     8    2
    97     9    78    1
    98    15    79    1
    99    18    80    1
   100    18    81    1
   101    19    82    1
   102    19    83    1
   103    20    23    1
   104    21    84    1
   105    21    85    1
   106    22    86    1
   107    22    87    1
   108    27    45    1
   109    28    34    1
   110    32    58    1
   111    33    46    2
   112    36    51    1
   113    36    66    1
   114    37    52    1
   115    37    67    1
   116    38    53    1
   117    38    68    1
   118    42    48    1
   119    42    72    1
   120    43    44    2
   121    60    73    1
   122    61    74    1
   123    39    69    1
   124    39    57    1
   125    40    70    1
   126    40    50    1
   127    41    71    1
   128    41    49    1
