@<TRIPOS>MOLECULE
*****
 123 128 0 0 0
SMALL
GASTEIGER

@<TRIPOS>ATOM
     1 C         5.168194   1.745175   0.493359 C.3        1 UNL1     0.0009
     2 C         6.605712   2.550477   -0.356386 C.2        1 UNL1     -0.0787
     3 C         7.887744   2.451552   -1.021709 C.2        1 UNL1     -0.0649
     4 C         8.766283   3.686231   -1.776755 C.2        1 UNL1     -0.0542
     5 C         9.786819   3.978371   -2.714965 C.2        1 UNL1     0.0115
     6 C         10.914878   3.352334   -3.580345 C.3        1 UNL1     -0.0348
     7 C         9.883368   5.461685   -3.32114 C.2        1 UNL1     0.2441
     8 O         10.707686   6.282695   -2.943028 O.2        1 UNL1     -0.2702
     9 N         9.133676   5.669398   -4.492024 N.am        1 UNL1     -0.2772
     10 C         7.85112   6.056889   -4.178616 C.2        1 UNL1     0.1049
     11 C         7.004577   5.085993   -3.887158 C.2        1 UNL1     0.0801
     12 C         6.553354   7.66414   -2.767984 C.ar        1 UNL1     0.0753
     13 C         5.793381   6.536652   -2.320974 C.ar        1 UNL1     0.0305
     14 C         5.909637   5.231001   -2.966584 C.2        1 UNL1     0.0924
     15 N         7.126345   3.756964   -4.046473 N.pl3        1 UNL1     -0.3170
     16 C         5.855974   3.158596   -3.732838 C.3        1 UNL1     0.1275
     17 N         5.2199   4.114066   -2.752936 N.2        1 UNL1     -0.2557
     18 C         5.003585   3.2185   -4.996779 C.3        1 UNL1     0.0016
     19 C         5.758374   2.534121   -6.125277 C.3        1 UNL1     0.0026
     20 N         6.02745   1.155758   -5.739606 N.3        1 UNL1     -0.3018
     21 C         6.790287   0.994596   -4.500059 C.3        1 UNL1     0.0026
     22 C         6.01164   1.685421   -3.379182 C.3        1 UNL1     0.0016
     23 C         6.471766   0.33614   -6.849314 C.3        1 UNL1     0.0012
     24 C         5.316476   0.087648   -7.831818 C.3        1 UNL1     -0.0339
     25 C         5.3431   1.091042   -8.996528 C.3        1 UNL1     -0.0615
     26 C         5.355058   -1.346985   -8.328928 C.3        1 UNL1     -0.0615
     27 C         6.349379   8.931865   -2.228183 C.ar        1 UNL1     0.1347
     28 C         5.390187   9.201875   -1.268446 C.ar        1 UNL1     0.0342
     29 C         4.687701   8.067811   -0.808471 C.ar        1 UNL1     0.1435
     30 C         4.906438   6.785735   -1.314095 C.ar        1 UNL1     0.0774
     31 O         3.646506   8.181917   0.0447 O.3        1 UNL1     -0.4436
     32 C         2.924036   6.949617   -0.097942 C.3        1 UNL1     0.3143
     33 C         3.936831   5.955927   -0.629955 C.2        1 UNL1     0.2504
     34 C         4.944134   10.568196   -0.827647 C.3        1 UNL1     -0.0327
     35 O         2.562672   6.512905   1.218094 O.2        1 UNL1     -0.4528
     36 C         -0.68156   4.583006   0.819926 C.3        1 UNL1     0.0854
     37 C         -0.987432   3.322804   -0.07777 C.3        1 UNL1     0.0236
     38 C         -1.589103   2.062017   0.709727 C.3        1 UNL1     0.1131
     39 C         -0.864128   1.530336   2.011264 C.3        1 UNL1     0.0200
     40 C         0.796951   1.383652   2.052942 C.3        1 UNL1     0.0661
     41 C         1.756174   0.614393   0.884292 C.3        1 UNL1     0.0091
     42 C         3.46419   0.975895   0.320909 C.3        1 UNL1     0.0661
     43 C         7.503617   7.456006   -3.888672 C.2        1 UNL1     0.2131
     44 O         7.904344   8.353948   -4.606902 O.2        1 UNL1     -0.2851
     45 O         7.162499   9.966506   -2.686213 O.3        1 UNL1     -0.5056
     46 O         3.951958   4.752357   -0.499402 O.2        1 UNL1     -0.2836
     47 C         5.563801   1.315156   1.931608 C.3        1 UNL1     -0.0566
     48 O         3.911765   -0.435531   0.402572 O.3        1 UNL1     -0.3909
     49 C         0.922227   0.382606   -0.355991 C.3        1 UNL1     -0.0577
     50 O         1.397854   2.60103   2.446169 O.3        1 UNL1     -0.3910
     51 O         -0.806224   4.393155   2.211273 O.3        1 UNL1     -0.3753
     52 C         0.057282   3.161836   -1.229989 C.3        1 UNL1     -0.0564
     53 O         -2.192126   1.023613   -0.190498 O.3        1 UNL1     -0.4608
     54 C         -2.415435   -0.286288   0.144499 C.2        1 UNL1     0.3042
     55 O         -1.8438   -1.279583   -0.303204 O.2        1 UNL1     -0.2512
     56 C         -3.445278   -0.463895   1.223662 C.3        1 UNL1     0.0332
     57 C         -1.585102   2.199588   3.272404 C.3        1 UNL1     -0.0567
     58 C         1.849355   7.195644   -1.182405 C.3        1 UNL1     0.0210
     59 C         -1.149777   5.565892   2.947835 C.3        1 UNL1     0.0372
     60 C         0.647939   5.211223   0.589849 C.2        1 UNL1     -0.0208
     61 C         1.560895   5.645672   1.459626 C.2        1 UNL1     0.0882
     62 H         4.69292   2.729657   0.580657 H        1 UNL1     0.0365
     63 H         6.340152   3.604439   -0.250973 H        1 UNL1     0.0576
     64 H         8.344807   1.48443   -1.242788 H        1 UNL1     0.0615
     65 H         8.279717   4.601898   -1.429924 H        1 UNL1     0.0622
     66 H         -1.425601   5.3301   0.509603 H        1 UNL1     0.0645
     67 H         -1.852575   3.632873   -0.68928 H        1 UNL1     0.0362
     68 H         -2.535985   2.499477   1.061245 H        1 UNL1     0.0741
     69 H         -1.196405   0.51943   2.206378 H        1 UNL1     0.0359
     70 H         0.907996   0.723085   2.934067 H        1 UNL1     0.0600
     71 H         1.798923   -0.406879   1.311062 H        1 UNL1     0.0348
     72 H         3.358335   1.463996   1.300637 H        1 UNL1     0.0602
     73 H         0.766296   5.408578   -0.446631 H        1 UNL1     0.0628
     74 H         1.542868   5.434828   2.529419 H        1 UNL1     0.1022
     75 H         10.958554   2.246997   -3.427512 H        1 UNL1     0.0279
     76 H         10.801641   3.435394   -4.658931 H        1 UNL1     0.0279
     77 H         11.920059   3.656291   -3.253355 H        1 UNL1     0.0279
     78 H         9.071243   4.799586   -5.017006 H        1 UNL1     0.1553
     79 H         7.791515   3.328627   -4.663733 H        1 UNL1     0.1484
     80 H         4.041906   2.728191   -4.803033 H        1 UNL1     0.0317
     81 H         4.777772   4.255457   -5.267669 H        1 UNL1     0.0317
     82 H         6.689478   3.064828   -6.372878 H        1 UNL1     0.0428
     83 H         5.133538   2.589851   -7.017199 H        1 UNL1     0.0428
     84 H         6.909795   -0.048493   -4.191037 H        1 UNL1     0.0428
     85 H         7.820664   1.36194   -4.60349 H        1 UNL1     0.0428
     86 H         6.527608   1.434543   -2.470983 H        1 UNL1     0.0317
     87 H         5.031829   1.208434   -3.254483 H        1 UNL1     0.0317
     88 H         7.268365   0.877484   -7.37626 H        1 UNL1     0.0429
     89 H         6.903603   -0.60999   -6.49842 H        1 UNL1     0.0429
     90 H         4.363522   0.194916   -7.300231 H        1 UNL1     0.0308
     91 H         6.292157   1.04558   -9.539046 H        1 UNL1     0.0233
     92 H         4.522905   0.897626   -9.691855 H        1 UNL1     0.0233
     93 H         5.219351   2.126941   -8.658245 H        1 UNL1     0.0233
     94 H         4.658951   -1.47594   -9.164776 H        1 UNL1     0.0233
     95 H         6.359374   -1.591886   -8.685769 H        1 UNL1     0.0233
     96 H         5.079958   -2.050773   -7.538377 H        1 UNL1     0.0233
     97 H         4.150531   10.518832   -0.088061 H        1 UNL1     0.0280
     98 H         5.75713   11.137601   -0.358528 H        1 UNL1     0.0280
     99 H         4.571114   11.133136   -1.697586 H        1 UNL1     0.0280
     100 H         6.696078   10.71723   -3.009458 H        1 UNL1     0.2922
     101 H         4.700534   0.88202   2.436405 H        1 UNL1     0.0236
     102 H         6.014952   2.120092   2.510852 H        1 UNL1     0.0236
     103 H         6.319501   0.511969   1.930606 H        1 UNL1     0.0236
     104 H         4.330941   -0.561957   1.27623 H        1 UNL1     0.2098
     105 H         0.710373   1.281681   -0.929222 H        1 UNL1     0.0234
     106 H         1.291281   -0.405556   -1.012137 H        1 UNL1     0.0234
     107 H         0.0   -0.0   0.0 H        1 UNL1     0.0234
     108 H         1.19997   3.259536   1.752641 H        1 UNL1     0.2098
     109 H         1.081922   3.047596   -0.849495 H        1 UNL1     0.0234
     110 H         -0.175514   2.335011   -1.909628 H        1 UNL1     0.0234
     111 H         0.07928   4.044746   -1.882624 H        1 UNL1     0.0234
     112 H         -3.569161   -1.527603   1.448434 H        1 UNL1     0.0342
     113 H         -3.198014   0.099136   2.122383 H        1 UNL1     0.0342
     114 H         -4.405508   -0.085162   0.847251 H        1 UNL1     0.0342
     115 H         -2.649463   1.931879   3.323944 H        1 UNL1     0.0234
     116 H         -1.134036   1.938574   4.23181 H        1 UNL1     0.0234
     117 H         -1.644801   3.299934   3.212269 H        1 UNL1     0.0234
     118 H         0.948486   7.683094   -0.770298 H        1 UNL1     0.0309
     119 H         2.219387   7.783518   -2.028386 H        1 UNL1     0.0309
     120 H         1.46028   6.264021   -1.60762 H        1 UNL1     0.0309
     121 H         -0.345011   6.287923   2.812264 H        1 UNL1     0.0524
     122 H         -2.079506   6.032437   2.581807 H        1 UNL1     0.0524
     123 H         -1.26595   5.327499   4.00129 H        1 UNL1     0.0524
@<TRIPOS>BOND
     1     1     2    1
     2     1    42    1
     3     2     3    2
     4     3     4    1
     5     4     5    2
     6     5     7    1
     7     6    75    1
     8     6    76    1
     9     6    77    1
    10     7     9   am
    11     9    10    1
    12    10    11    2
    13    10    43    1
    14    11    14    1
    15    11    15    1
    16    12    13   ar
    17    12    27   ar
    18    12    43    1
    19    13    14    1
    20    13    30   ar
    21    14    17    2
    22    15    16    1
    23    16    17    1
    24    16    18    1
    25    16    22    1
    26    18    19    1
    27    19    20    1
    28    20    21    1
    29    21    22    1
    30    23    24    1
    31    23    88    1
    32    23    89    1
    33    24    25    1
    34    24    26    1
    35    24    90    1
    36    25    91    1
    37    25    92    1
    38    25    93    1
    39    26    94    1
    40    26    95    1
    41    26    96    1
    42    27    28   ar
    43    28    29   ar
    44    29    30   ar
    45    29    31    1
    46    30    33    1
    47    31    32    1
    48    32    33    1
    49    32    35    1
    50    34    97    1
    51    34    98    1
    52    34    99    1
    53    35    61    1
    54    36    37    1
    55    36    60    1
    56    37    38    1
    57    38    39    1
    58    39    40    1
    59    40    41    1
    60    41    42    1
    61    45   100    1
    62    47   101    1
    63    47   102    1
    64    47   103    1
    65    48   104    1
    66    49   105    1
    67    49   106    1
    68    49   107    1
    69    50   108    1
    70    51    59    1
    71    52   109    1
    72    52   110    1
    73    52   111    1
    74    53    54    1
    75    54    55    2
    76    54    56    1
    77    56   112    1
    78    56   113    1
    79    56   114    1
    80    57   115    1
    81    57   116    1
    82    57   117    1
    83    58   118    1
    84    58   119    1
    85    58   120    1
    86    59   121    1
    87    59   122    1
    88    59   123    1
    89    60    61    2
    90     1    47    1
    91     1    62    1
    92     2    63    1
    93     3    64    1
    94     4    65    1
    95     5     6    1
    96     7     8    2
    97     9    78    1
    98    15    79    1
    99    18    80    1
   100    18    81    1
   101    19    82    1
   102    19    83    1
   103    20    23    1
   104    21    84    1
   105    21    85    1
   106    22    86    1
   107    22    87    1
   108    27    45    1
   109    28    34    1
   110    32    58    1
   111    33    46    2
   112    36    51    1
   113    36    66    1
   114    37    52    1
   115    37    67    1
   116    38    53    1
   117    38    68    1
   118    42    48    1
   119    42    72    1
   120    43    44    2
   121    60    73    1
   122    61    74    1
   123    39    69    1
   124    39    57    1
   125    40    70    1
   126    40    50    1
   127    41    71    1
   128    41    49    1
