@<TRIPOS>MOLECULE
*****
 123 128 0 0 0
SMALL
GASTEIGER

@<TRIPOS>ATOM
     1 C         5.166977   1.757935   0.459657 C.3        1 UNL1     0.0009
     2 C         6.597275   2.565842   -0.399745 C.2        1 UNL1     -0.0787
     3 C         7.875391   2.46933   -1.072911 C.2        1 UNL1     -0.0649
     4 C         8.746285   3.705372   -1.834553 C.2        1 UNL1     -0.0542
     5 C         9.760286   3.999042   -2.779349 C.2        1 UNL1     0.0115
     6 C         10.884449   3.374862   -3.651118 C.3        1 UNL1     -0.0348
     7 C         9.849538   5.482   -3.387508 C.2        1 UNL1     0.2441
     8 O         10.674224   6.30533   -3.015289 O.2        1 UNL1     -0.2702
     9 N         9.092109   5.686809   -4.553915 N.am        1 UNL1     -0.2772
     10 C         7.8106   6.071547   -4.232925 C.2        1 UNL1     0.1049
     11 C         6.968198   5.09892   -3.935309 C.2        1 UNL1     0.0801
     12 C         6.517775   7.677056   -2.815788 C.ar        1 UNL1     0.0753
     13 C         5.763278   6.548191   -2.363011 C.ar        1 UNL1     0.0305
     14 C         5.878643   5.242204   -3.008099 C.2        1 UNL1     0.0924
     15 N         7.092145   3.770032   -4.094124 N.pl3        1 UNL1     -0.3170
     16 C         5.825173   3.168944   -3.772054 C.3        1 UNL1     0.1275
     17 N         5.192909   4.123836   -2.789127 N.2        1 UNL1     -0.2557
     18 C         4.964825   3.225612   -5.030741 C.3        1 UNL1     0.0016
     19 C         5.714234   2.541951   -6.163252 C.3        1 UNL1     0.0026
     20 N         5.988981   1.164601   -5.777959 N.3        1 UNL1     -0.3018
     21 C         6.759869   1.00644   -4.543015 C.3        1 UNL1     0.0026
     22 C         5.986541   1.696483   -3.417983 C.3        1 UNL1     0.0016
     23 C         6.428363   0.344982   -6.889629 C.3        1 UNL1     0.0012
     24 C         5.267601   0.092802   -7.864715 C.3        1 UNL1     -0.0339
     25 C         5.353957   1.014636   -9.092242 C.3        1 UNL1     -0.0615
     26 C         5.233796   -1.371494   -8.266555 C.3        1 UNL1     -0.0615
     27 C         6.314127   8.944808   -2.275926 C.ar        1 UNL1     0.1347
     28 C         5.360262   9.213453   -1.310514 C.ar        1 UNL1     0.0342
     29 C         4.663347   8.078162   -0.845123 C.ar        1 UNL1     0.1435
     30 C         4.882002   6.796127   -1.350887 C.ar        1 UNL1     0.0774
     31 O         3.627192   8.190607   0.014379 O.3        1 UNL1     -0.4436
     32 C         2.906792   6.956457   -0.122618 C.3        1 UNL1     0.3143
     33 C         3.918636   5.96467   -0.659966 C.2        1 UNL1     0.2504
     34 C         4.913693   10.57913   -0.868244 C.3        1 UNL1     -0.0327
     35 O         2.554635   6.520145   1.196044 O.2        1 UNL1     -0.4528
     36 C         -0.687391   4.582154   0.819819 C.3        1 UNL1     0.0854
     37 C         -0.995817   3.32037   -0.074775 C.3        1 UNL1     0.0236
     38 C         -1.589585   2.058909   0.717626 C.3        1 UNL1     0.1131
     39 C         -0.855291   1.5302   2.015142 C.3        1 UNL1     0.0200
     40 C         0.80636   1.387507   2.046656 C.3        1 UNL1     0.0661
     41 C         1.760152   0.619415   0.872805 C.3        1 UNL1     0.0091
     42 C         3.463776   0.984439   0.298501 C.3        1 UNL1     0.0661
     43 C         7.461566   7.47011   -3.94215 C.2        1 UNL1     0.2131
     44 O         7.855691   8.368316   -4.663696 O.2        1 UNL1     -0.2851
     45 O         7.121923   9.980942   -2.739964 O.3        1 UNL1     -0.5056
     46 O         3.937442   4.761265   -0.528375 O.2        1 UNL1     -0.2836
     47 C         5.572516   1.330234   1.895829 C.3        1 UNL1     -0.0566
     48 O         3.915213   -0.42584   0.378717 O.3        1 UNL1     -0.3909
     49 C         0.919088   0.384458   -0.362063 C.3        1 UNL1     -0.0577
     50 O         1.406784   2.606687   2.435003 O.3        1 UNL1     -0.3910
     51 O         -0.802975   4.393338   2.212091 O.3        1 UNL1     -0.3753
     52 C         0.042117   3.160785   -1.233298 C.3        1 UNL1     -0.0564
     53 O         -2.1957   1.018213   -0.177865 O.3        1 UNL1     -0.4608
     54 C         -2.394734   -0.296768   0.152501 C.2        1 UNL1     0.3042
     55 O         -1.720848   -1.264962   -0.197237 O.2        1 UNL1     -0.2512
     56 C         -3.545694   -0.512904   1.093399 C.3        1 UNL1     0.0332
     57 C         -1.570027   2.198941   3.280097 C.3        1 UNL1     -0.0567
     58 C         1.824825   7.198888   -1.200628 C.3        1 UNL1     0.0210
     59 C         -1.113819   5.572381   2.953104 C.3        1 UNL1     0.0372
     60 C         0.639154   5.213312   0.580911 C.2        1 UNL1     -0.0208
     61 C         1.556446   5.650763   1.4446 C.2        1 UNL1     0.0882
     62 H         4.689906   2.741367   0.548972 H        1 UNL1     0.0365
     63 H         6.329861   3.619269   -0.29368 H        1 UNL1     0.0576
     64 H         8.333379   1.503087   -1.295909 H        1 UNL1     0.0615
     65 H         8.259696   4.62021   -1.485574 H        1 UNL1     0.0622
     66 H         -1.435121   5.327178   0.513413 H        1 UNL1     0.0645
     67 H         -1.86547   3.627795   -0.681201 H        1 UNL1     0.0362
     68 H         -2.535311   2.494452   1.074596 H        1 UNL1     0.0741
     69 H         -1.18394   0.518693   2.213264 H        1 UNL1     0.0359
     70 H         0.92444   0.72805   2.927697 H        1 UNL1     0.0600
     71 H         1.807981   -0.401344   1.300264 H        1 UNL1     0.0348
     72 H         3.362832   1.473224   1.278407 H        1 UNL1     0.0602
     73 H         0.750613   5.409956   -0.456468 H        1 UNL1     0.0628
     74 H         1.545554   5.4409   2.514682 H        1 UNL1     0.1022
     75 H         10.880158   2.262016   -3.558433 H        1 UNL1     0.0279
     76 H         10.802415   3.520739   -4.725854 H        1 UNL1     0.0279
     77 H         11.892176   3.619075   -3.28431 H        1 UNL1     0.0279
     78 H         9.028498   4.816349   -5.07768 H        1 UNL1     0.1553
     79 H         7.754495   3.342689   -4.715093 H        1 UNL1     0.1484
     80 H         4.005538   2.733202   -4.830572 H        1 UNL1     0.0317
     81 H         4.734865   4.261769   -5.301201 H        1 UNL1     0.0317
     82 H         6.642517   3.074634   -6.417122 H        1 UNL1     0.0428
     83 H         5.08375   2.595341   -7.051335 H        1 UNL1     0.0428
     84 H         6.883778   -0.036066   -4.233758 H        1 UNL1     0.0428
     85 H         7.788707   1.376135   -4.65318 H        1 UNL1     0.0428
     86 H         6.508725   1.447702   -2.512765 H        1 UNL1     0.0317
     87 H         5.008662   1.217286   -3.286761 H        1 UNL1     0.0317
     88 H         7.220387   0.887714   -7.422014 H        1 UNL1     0.0429
     89 H         6.864622   -0.599783   -6.540528 H        1 UNL1     0.0429
     90 H         4.318387   0.284236   -7.350362 H        1 UNL1     0.0308
     91 H         6.306431   0.890986   -9.616271 H        1 UNL1     0.0233
     92 H         4.534247   0.812406   -9.785631 H        1 UNL1     0.0233
     93 H         5.273463   2.075161   -8.824583 H        1 UNL1     0.0233
     94 H         4.613828   -1.5038   -9.159847 H        1 UNL1     0.0233
     95 H         6.243923   -1.717476   -8.50299 H        1 UNL1     0.0233
     96 H         4.825126   -1.99544   -7.466774 H        1 UNL1     0.0233
     97 H         4.06991   10.530932   -0.186381 H        1 UNL1     0.0280
     98 H         5.704085   11.119027   -0.330612 H        1 UNL1     0.0280
     99 H         4.613824   11.172146   -1.747736 H        1 UNL1     0.0280
     100 H         6.65538   10.758653   -2.991211 H        1 UNL1     0.2922
     101 H         4.690427   0.999856   2.443942 H        1 UNL1     0.0236
     102 H         6.122973   2.101566   2.433442 H        1 UNL1     0.0236
     103 H         6.244289   0.455645   1.89333 H        1 UNL1     0.0236
     104 H         4.252229   -0.576646   1.283509 H        1 UNL1     0.2098
     105 H         0.701541   1.282477   -0.934816 H        1 UNL1     0.0234
     106 H         1.285945   -0.403451   -1.019742 H        1 UNL1     0.0234
     107 H         0.0   -0.0   0.0 H        1 UNL1     0.0234
     108 H         1.256882   3.24685   1.712861 H        1 UNL1     0.2098
     109 H         1.07079   3.06174   -0.859489 H        1 UNL1     0.0234
     110 H         -0.186197   2.325163   -1.903636 H        1 UNL1     0.0234
     111 H         0.049141   4.037871   -1.894069 H        1 UNL1     0.0234
     112 H         -3.6364   -1.576899   1.332216 H        1 UNL1     0.0342
     113 H         -3.451872   0.084219   1.999206 H        1 UNL1     0.0342
     114 H         -4.468278   -0.202244   0.583993 H        1 UNL1     0.0342
     115 H         -2.657436   2.042427   3.264813 H        1 UNL1     0.0234
     116 H         -1.199775   1.837715   4.241595 H        1 UNL1     0.0234
     117 H         -1.513428   3.301079   3.285647 H        1 UNL1     0.0234
     118 H         0.923516   7.680355   -0.782494 H        1 UNL1     0.0309
     119 H         2.186923   7.790724   -2.047279 H        1 UNL1     0.0309
     120 H         1.438643   6.266056   -1.625827 H        1 UNL1     0.0309
     121 H         -0.73512   5.434896   3.965547 H        1 UNL1     0.0524
     122 H         -0.627023   6.469441   2.535551 H        1 UNL1     0.0524
     123 H         -2.188259   5.731347   2.973161 H        1 UNL1     0.0524
@<TRIPOS>BOND
     1     1     2    1
     2     1    42    1
     3     2     3    2
     4     3     4    1
     5     4     5    2
     6     5     7    1
     7     6    75    1
     8     6    76    1
     9     6    77    1
    10     7     9   am
    11     9    10    1
    12    10    11    2
    13    10    43    1
    14    11    14    1
    15    11    15    1
    16    12    13   ar
    17    12    27   ar
    18    12    43    1
    19    13    14    1
    20    13    30   ar
    21    14    17    2
    22    15    16    1
    23    16    17    1
    24    16    18    1
    25    16    22    1
    26    18    19    1
    27    19    20    1
    28    20    21    1
    29    21    22    1
    30    23    24    1
    31    23    88    1
    32    23    89    1
    33    24    25    1
    34    24    26    1
    35    24    90    1
    36    25    91    1
    37    25    92    1
    38    25    93    1
    39    26    94    1
    40    26    95    1
    41    26    96    1
    42    27    28   ar
    43    28    29   ar
    44    29    30   ar
    45    29    31    1
    46    30    33    1
    47    31    32    1
    48    32    33    1
    49    32    35    1
    50    34    97    1
    51    34    98    1
    52    34    99    1
    53    35    61    1
    54    36    37    1
    55    36    60    1
    56    37    38    1
    57    38    39    1
    58    39    40    1
    59    40    41    1
    60    41    42    1
    61    45   100    1
    62    47   101    1
    63    47   102    1
    64    47   103    1
    65    48   104    1
    66    49   105    1
    67    49   106    1
    68    49   107    1
    69    50   108    1
    70    51    59    1
    71    52   109    1
    72    52   110    1
    73    52   111    1
    74    53    54    1
    75    54    55    2
    76    54    56    1
    77    56   112    1
    78    56   113    1
    79    56   114    1
    80    57   115    1
    81    57   116    1
    82    57   117    1
    83    58   118    1
    84    58   119    1
    85    58   120    1
    86    59   121    1
    87    59   122    1
    88    59   123    1
    89    60    61    2
    90     1    47    1
    91     1    62    1
    92     2    63    1
    93     3    64    1
    94     4    65    1
    95     5     6    1
    96     7     8    2
    97     9    78    1
    98    15    79    1
    99    18    80    1
   100    18    81    1
   101    19    82    1
   102    19    83    1
   103    20    23    1
   104    21    84    1
   105    21    85    1
   106    22    86    1
   107    22    87    1
   108    27    45    1
   109    28    34    1
   110    32    58    1
   111    33    46    2
   112    36    51    1
   113    36    66    1
   114    37    52    1
   115    37    67    1
   116    38    53    1
   117    38    68    1
   118    42    48    1
   119    42    72    1
   120    43    44    2
   121    60    73    1
   122    61    74    1
   123    39    69    1
   124    39    57    1
   125    40    70    1
   126    40    50    1
   127    41    71    1
   128    41    49    1
