@<TRIPOS>MOLECULE
*****
 123 128 0 0 0
SMALL
GASTEIGER

@<TRIPOS>ATOM
     1 C         3.919401   -1.992458   1.934353 C.3        1 UNL1     0.0009
     2 C         5.562086   -2.502234   1.242433 C.2        1 UNL1     -0.0787
     3 C         6.52465   -3.535579   0.923508 C.2        1 UNL1     -0.0649
     4 C         7.987562   -3.372618   0.087033 C.2        1 UNL1     -0.0542
     5 C         8.987687   -4.056674   -0.647062 C.2        1 UNL1     0.0115
     6 C         9.508654   -5.463122   -1.051807 C.3        1 UNL1     -0.0348
     7 C         9.983006   -3.209856   -1.579386 C.2        1 UNL1     0.2441
     8 O         11.131426   -2.940919   -1.254839 O.2        1 UNL1     -0.2702
     9 N         9.536856   -3.021994   -2.899163 N.am        1 UNL1     -0.2772
     10 C         8.756401   -1.892094   -2.985981 C.2        1 UNL1     0.1049
     11 C         7.487868   -2.033445   -2.646768 C.2        1 UNL1     0.0801
     12 C         8.694278   0.528739   -2.35905 C.ar        1 UNL1     0.0753
     13 C         7.395639   0.273585   -1.814034 C.ar        1 UNL1     0.0305
     14 C         6.697267   -0.986392   -2.058544 C.2        1 UNL1     0.0924
     15 N         6.77177   -3.149344   -2.426535 N.pl3        1 UNL1     -0.3170
     16 C         5.396515   -2.762356   -2.255747 C.3        1 UNL1     0.1275
     17 N         5.464291   -1.35292   -1.720378 N.2        1 UNL1     -0.2557
     18 C         4.780112   -2.657548   -3.647425 C.3        1 UNL1     0.0016
     19 C         4.974673   -3.982903   -4.36657 C.3        1 UNL1     0.0026
     20 N         4.336   -5.035424   -3.588544 N.3        1 UNL1     -0.3018
     21 C         4.819979   -5.172806   -2.213313 C.3        1 UNL1     0.0026
     22 C         4.610647   -3.831558   -1.50824 C.3        1 UNL1     0.0016
     23 C         4.202121   -6.277584   -4.323227 C.3        1 UNL1     0.0012
     24 C         2.742513   -6.495002   -4.752213 C.3        1 UNL1     -0.0339
     25 C         2.412673   -7.99074   -4.886486 C.3        1 UNL1     -0.0615
     26 C         1.804944   -5.80094   -3.779576 C.3        1 UNL1     -0.0615
     27 C         9.301798   1.774802   -2.223539 C.ar        1 UNL1     0.1347
     28 C         8.694431   2.850702   -1.600968 C.ar        1 UNL1     0.0342
     29 C         7.436962   2.562109   -1.029438 C.ar        1 UNL1     0.1435
     30 C         6.831758   1.308453   -1.125848 C.ar        1 UNL1     0.0774
     31 O         6.670939   3.532487   -0.484843 O.3        1 UNL1     -0.4436
     32 C         5.347055   2.977915   -0.459244 C.3        1 UNL1     0.3143
     33 C         5.546267   1.475893   -0.480677 C.2        1 UNL1     0.2504
     34 C         9.172772   4.275475   -1.637212 C.3        1 UNL1     -0.0327
     35 O         4.772925   3.304508   0.812355 O.2        1 UNL1     -0.4528
     36 C         1.0336   3.586714   0.224222 C.3        1 UNL1     0.0854
     37 C         0.033688   2.517034   -0.361853 C.3        1 UNL1     0.0236
     38 C         -1.227062   2.187018   0.572675 C.3        1 UNL1     0.1131
     39 C         -1.001138   1.815695   2.093644 C.3        1 UNL1     0.0200
     40 C         0.220276   0.76906   2.535394 C.3        1 UNL1     0.0661
     41 C         0.524911   -0.750333   1.845283 C.3        1 UNL1     0.0091
     42 C         2.104598   -1.649361   1.596811 C.3        1 UNL1     0.0661
     43 C         9.335091   -0.550362   -3.150985 C.2        1 UNL1     0.2131
     44 O         10.213565   -0.352704   -3.970711 O.2        1 UNL1     -0.2851
     45 O         10.585667   1.926472   -2.743266 O.3        1 UNL1     -0.5056
     46 O         4.818239   0.612896   -0.043568 O.2        1 UNL1     -0.2836
     47 C         3.945323   -2.052968   3.485368 C.3        1 UNL1     -0.0566
     48 O         1.591485   -2.931741   2.136561 O.3        1 UNL1     -0.3909
     49 C         -0.256136   -0.865842   0.555276 C.3        1 UNL1     -0.0577
     50 O         1.435   1.466973   2.722708 O.3        1 UNL1     -0.3910
     51 O         0.796577   3.987562   1.55485 O.3        1 UNL1     -0.3753
     52 C         0.778524   1.408378   -1.174904 C.3        1 UNL1     -0.0564
     53 O         -2.325657   1.452236   -0.138317 O.3        1 UNL1     -0.4608
     54 C         -3.255855   2.021768   -0.967952 C.2        1 UNL1     0.3042
     55 O         -3.852929   3.084757   -0.802439 O.2        1 UNL1     -0.2512
     56 C         -3.491376   1.243825   -2.2313 C.3        1 UNL1     0.0332
     57 C         -1.180377   3.155312   2.948907 C.3        1 UNL1     -0.0567
     58 C         4.666325   3.409755   -1.778959 C.3        1 UNL1     0.0210
     59 C         1.971103   4.27221   2.313354 C.3        1 UNL1     0.0372
     60 C         2.472528   3.216448   0.137312 C.2        1 UNL1     -0.0208
     61 C         3.44613   3.312537   1.043738 C.2        1 UNL1     0.0882
     62 H         4.14619   -0.955738   1.657786 H        1 UNL1     0.0365
     63 H         5.996827   -1.527602   1.010994 H        1 UNL1     0.0576
     64 H         6.296251   -4.594217   1.065733 H        1 UNL1     0.0615
     65 H         8.159107   -2.292913   0.069929 H        1 UNL1     0.0622
     66 H         0.908896   4.465462   -0.424081 H        1 UNL1     0.0645
     67 H         -0.449807   3.036863   -1.207176 H        1 UNL1     0.0362
     68 H         -1.712355   3.174902   0.582486 H        1 UNL1     0.0741
     69 H         -1.886471   1.317344   2.465449 H        1 UNL1     0.0359
     70 H         -0.111036   0.510712   3.559381 H        1 UNL1     0.0600
     71 H         -0.074253   -1.392733   2.520028 H        1 UNL1     0.0348
     72 H         2.304632   -0.892544   2.369165 H        1 UNL1     0.0602
     73 H         2.703517   2.944994   -0.862791 H        1 UNL1     0.0628
     74 H         3.285586   3.527748   2.10069 H        1 UNL1     0.1022
     75 H         10.333794   -5.375418   -1.799125 H        1 UNL1     0.0279
     76 H         9.968254   -6.055499   -0.263817 H        1 UNL1     0.0279
     77 H         8.765839   -6.045528   -1.616369 H        1 UNL1     0.0279
     78 H         8.962633   -3.813408   -3.182023 H        1 UNL1     0.1553
     79 H         7.044379   -4.059087   -2.750548 H        1 UNL1     0.1484
     80 H         3.716838   -2.407266   -3.54958 H        1 UNL1     0.0317
     81 H         5.241816   -1.845814   -4.21976 H        1 UNL1     0.0317
     82 H         6.039424   -4.203755   -4.532229 H        1 UNL1     0.0428
     83 H         4.529519   -3.885536   -5.35723 H        1 UNL1     0.0428
     84 H         4.269943   -5.915328   -1.626855 H        1 UNL1     0.0428
     85 H         5.860687   -5.523645   -2.17934 H        1 UNL1     0.0428
     86 H         4.849909   -4.006759   -0.475745 H        1 UNL1     0.0317
     87 H         3.542319   -3.584329   -1.482776 H        1 UNL1     0.0317
     88 H         4.824992   -6.210002   -5.224758 H        1 UNL1     0.0429
     89 H         4.573976   -7.128795   -3.738472 H        1 UNL1     0.0429
     90 H         2.577781   -6.012589   -5.722962 H        1 UNL1     0.0308
     91 H         1.645482   -8.294891   -4.168146 H        1 UNL1     0.0233
     92 H         2.068835   -8.221245   -5.897551 H        1 UNL1     0.0233
     93 H         3.286621   -8.628802   -4.707805 H        1 UNL1     0.0233
     94 H         2.072505   -6.057452   -2.748825 H        1 UNL1     0.0233
     95 H         1.888636   -4.716109   -3.889579 H        1 UNL1     0.0233
     96 H         0.765127   -6.093823   -3.94978 H        1 UNL1     0.0233
     97 H         9.657538   4.518721   -2.57799 H        1 UNL1     0.0280
     98 H         8.347766   4.991835   -1.530207 H        1 UNL1     0.0280
     99 H         9.896068   4.44277   -0.822381 H        1 UNL1     0.0280
     100 H         10.631022   1.918451   -3.683213 H        1 UNL1     0.2922
     101 H         3.458429   -2.966564   3.825858 H        1 UNL1     0.0236
     102 H         3.52419   -1.165236   3.956072 H        1 UNL1     0.0236
     103 H         4.972909   -2.119666   3.880097 H        1 UNL1     0.0236
     104 H         0.965355   -2.71941   2.856177 H        1 UNL1     0.2098
     105 H         -0.002439   -1.734522   -0.047091 H        1 UNL1     0.0234
     106 H         -1.337287   -0.787675   0.66898 H        1 UNL1     0.0234
     107 H         0.0   0.0   0.0 H        1 UNL1     0.0234
     108 H         2.088202   0.826043   3.063741 H        1 UNL1     0.2098
     109 H         1.321211   1.819082   -2.037763 H        1 UNL1     0.0234
     110 H         1.462594   0.811516   -0.562085 H        1 UNL1     0.0234
     111 H         0.078334   0.670166   -1.588092 H        1 UNL1     0.0234
     112 H         -3.406082   0.171737   -2.029562 H        1 UNL1     0.0342
     113 H         -4.452558   1.480759   -2.684991 H        1 UNL1     0.0342
     114 H         -2.707405   1.514315   -2.951987 H        1 UNL1     0.0342
     115 H         -0.263364   3.417314   3.494462 H        1 UNL1     0.0234
     116 H         -1.469568   4.025245   2.355921 H        1 UNL1     0.0234
     117 H         -1.900632   3.054248   3.778944 H        1 UNL1     0.0234
     118 H         4.668857   2.601121   -2.530698 H        1 UNL1     0.0309
     119 H         3.640288   3.763845   -1.637289 H        1 UNL1     0.0309
     120 H         5.201202   4.223217   -2.281248 H        1 UNL1     0.0309
     121 H         1.781777   3.965703   3.341735 H        1 UNL1     0.0524
     122 H         2.847795   3.707563   1.954714 H        1 UNL1     0.0524
     123 H         2.195636   5.334348   2.274093 H        1 UNL1     0.0524
@<TRIPOS>BOND
     1     1     2    1
     2     1    42    1
     3     2     3    2
     4     3     4    1
     5     4     5    2
     6     5     7    1
     7     6    75    1
     8     6    76    1
     9     6    77    1
    10     7     9   am
    11     9    10    1
    12    10    11    2
    13    10    43    1
    14    11    14    1
    15    11    15    1
    16    12    13   ar
    17    12    27   ar
    18    12    43    1
    19    13    14    1
    20    13    30   ar
    21    14    17    2
    22    15    16    1
    23    16    17    1
    24    16    18    1
    25    16    22    1
    26    18    19    1
    27    19    20    1
    28    20    21    1
    29    21    22    1
    30    23    24    1
    31    23    88    1
    32    23    89    1
    33    24    25    1
    34    24    26    1
    35    24    90    1
    36    25    91    1
    37    25    92    1
    38    25    93    1
    39    26    94    1
    40    26    95    1
    41    26    96    1
    42    27    28   ar
    43    28    29   ar
    44    29    30   ar
    45    29    31    1
    46    30    33    1
    47    31    32    1
    48    32    33    1
    49    32    35    1
    50    34    97    1
    51    34    98    1
    52    34    99    1
    53    35    61    1
    54    36    37    1
    55    36    60    1
    56    37    38    1
    57    38    39    1
    58    39    40    1
    59    40    41    1
    60    41    42    1
    61    45   100    1
    62    47   101    1
    63    47   102    1
    64    47   103    1
    65    48   104    1
    66    49   105    1
    67    49   106    1
    68    49   107    1
    69    50   108    1
    70    51    59    1
    71    52   109    1
    72    52   110    1
    73    52   111    1
    74    53    54    1
    75    54    55    2
    76    54    56    1
    77    56   112    1
    78    56   113    1
    79    56   114    1
    80    57   115    1
    81    57   116    1
    82    57   117    1
    83    58   118    1
    84    58   119    1
    85    58   120    1
    86    59   121    1
    87    59   122    1
    88    59   123    1
    89    60    61    2
    90     1    47    1
    91     1    62    1
    92     2    63    1
    93     3    64    1
    94     4    65    1
    95     5     6    1
    96     7     8    2
    97     9    78    1
    98    15    79    1
    99    18    80    1
   100    18    81    1
   101    19    82    1
   102    19    83    1
   103    20    23    1
   104    21    84    1
   105    21    85    1
   106    22    86    1
   107    22    87    1
   108    27    45    1
   109    28    34    1
   110    32    58    1
   111    33    46    2
   112    36    51    1
   113    36    66    1
   114    37    52    1
   115    37    67    1
   116    38    53    1
   117    38    68    1
   118    42    48    1
   119    42    72    1
   120    43    44    2
   121    60    73    1
   122    61    74    1
   123    39    69    1
   124    39    57    1
   125    40    70    1
   126    40    50    1
   127    41    71    1
   128    41    49    1
