@<TRIPOS>MOLECULE
*****
 123 128 0 0 0
SMALL
GASTEIGER

@<TRIPOS>ATOM
     1 C         -0.21895   1.56522   -3.933593 C.3        1 UNL1     0.0009
     2 C         -1.687058   1.578938   -5.06563 C.2        1 UNL1     -0.0787
     3 C         -2.387388   1.058055   -6.220733 C.2        1 UNL1     -0.0649
     4 C         -3.945877   1.447207   -6.755551 C.2        1 UNL1     -0.0542
     5 C         -5.040535   1.023932   -7.54905 C.2        1 UNL1     0.0115
     6 C         -5.497595   -0.019152   -8.605645 C.3        1 UNL1     -0.0348
     7 C         -6.479784   1.692571   -7.307235 C.2        1 UNL1     0.2441
     8 O         -6.9449   2.554197   -8.040579 O.2        1 UNL1     -0.2702
     9 N         -7.279444   1.040147   -6.352752 N.am        1 UNL1     -0.2772
     10 C         -7.021131   1.531058   -5.093545 C.2        1 UNL1     0.1049
     11 C         -5.975044   1.017662   -4.471976 C.2        1 UNL1     0.0801
     12 C         -6.789733   3.66219   -3.804334 C.ar        1 UNL1     0.0753
     13 C         -5.548684   3.14126   -3.317468 C.ar        1 UNL1     0.0305
     14 C         -5.166528   1.747567   -3.533404 C.2        1 UNL1     0.0924
     15 N         -5.232711   -0.06063   -4.776533 N.pl3        1 UNL1     -0.3170
     16 C         -4.321672   -0.289014   -3.686532 C.3        1 UNL1     0.1275
     17 N         -4.114527   1.075145   -3.07507 N.2        1 UNL1     -0.2557
     18 C         -5.065809   -1.11342   -2.640436 C.3        1 UNL1     0.0016
     19 C         -5.585973   -2.380743   -3.299915 C.3        1 UNL1     0.0026
     20 N         -4.456851   -3.121774   -3.844879 N.3        1 UNL1     -0.3018
     21 C         -3.642299   -2.388373   -4.815959 C.3        1 UNL1     0.0026
     22 C         -3.12639   -1.121671   -4.130978 C.3        1 UNL1     0.0016
     23 C         -4.80283   -4.476439   -4.226749 C.3        1 UNL1     0.0012
     24 C         -6.258774   -4.788138   -3.846186 C.3        1 UNL1     -0.0339
     25 C         -6.430316   -6.260377   -3.437354 C.3        1 UNL1     -0.0615
     26 C         -6.723619   -3.84567   -2.749621 C.3        1 UNL1     -0.0615
     27 C         -7.201902   4.955451   -3.491747 C.ar        1 UNL1     0.1347
     28 C         -6.479632   5.804009   -2.671791 C.ar        1 UNL1     0.0342
     29 C         -5.238123   5.287417   -2.244062 C.ar        1 UNL1     0.1435
     30 C         -4.795477   4.007117   -2.578898 C.ar        1 UNL1     0.0774
     31 O         -4.469285   5.948948   -1.351722 O.3        1 UNL1     -0.4436
     32 C         -3.586542   4.94861   -0.821664 C.3        1 UNL1     0.3143
     33 C         -3.535757   3.864543   -1.879224 C.2        1 UNL1     0.2504
     34 C         -6.972463   7.10039   -2.091608 C.3        1 UNL1     -0.0327
     35 O         -2.277612   5.527812   -0.754756 O.2        1 UNL1     -0.4528
     36 C         -0.536851   3.831591   2.160835 C.3        1 UNL1     0.0854
     37 C         -0.267786   2.296719   2.404338 C.3        1 UNL1     0.0236
     38 C         1.267896   1.912022   2.660138 C.3        1 UNL1     0.1131
     39 C         2.381492   2.417203   1.65666 C.3        1 UNL1     0.0200
     40 C         2.129205   2.346592   0.009298 C.3        1 UNL1     0.0661
     41 C         1.590206   0.990853   -0.856186 C.3        1 UNL1     0.0091
     42 C         0.55901   0.877729   -2.369209 C.3        1 UNL1     0.0661
     43 C         -7.665576   2.74872   -4.579403 C.2        1 UNL1     0.2131
     44 O         -8.864888   2.914993   -4.708798 O.2        1 UNL1     -0.2851
     45 O         -8.401208   5.40134   -4.043366 O.3        1 UNL1     -0.5056
     46 O         -2.646281   3.075463   -2.107345 O.2        1 UNL1     -0.2836
     47 C         0.999546   2.236478   -4.62255 C.3        1 UNL1     -0.0566
     48 O         1.453098   -0.094402   -3.04351 O.3        1 UNL1     -0.3909
     49 C         1.052585   -0.030177   0.121544 C.3        1 UNL1     -0.0577
     50 O         1.46239   3.506763   -0.445768 O.3        1 UNL1     -0.3910
     51 O         0.607478   4.643578   2.024379 O.3        1 UNL1     -0.3753
     52 C         -1.218986   1.396569   1.549998 C.3        1 UNL1     -0.0564
     53 O         1.455601   0.535871   3.228736 O.3        1 UNL1     -0.4608
     54 C         2.475619   -0.322846   2.912356 C.2        1 UNL1     0.3042
     55 O         2.424754   -1.300616   2.167226 O.2        1 UNL1     -0.2512
     56 C         3.79222   0.053794   3.529947 C.3        1 UNL1     0.0332
     57 C         2.998334   3.764322   2.259115 C.3        1 UNL1     -0.0567
     58 C         -4.275965   4.381669   0.441191 C.3        1 UNL1     0.0210
     59 C         0.869379   5.501598   3.133918 C.3        1 UNL1     0.0372
     60 C         -1.421804   4.139165   1.004368 C.2        1 UNL1     -0.0208
     61 C         -1.300487   5.055199   0.042647 C.2        1 UNL1     0.0882
     62 H         -0.702722   2.341126   -3.328079 H        1 UNL1     0.0365
     63 H         -2.252036   2.418941   -4.65616 H        1 UNL1     0.0576
     64 H         -2.006154   0.203276   -6.783869 H        1 UNL1     0.0615
     65 H         -4.196721   2.350255   -6.192467 H        1 UNL1     0.0622
     66 H         -1.084247   4.16114   3.055151 H        1 UNL1     0.0645
     67 H         -0.711239   2.100838   3.396074 H        1 UNL1     0.0362
     68 H         1.443422   2.467062   3.594291 H        1 UNL1     0.0741
     69 H         3.268173   1.811206   1.786938 H        1 UNL1     0.0359
     70 H         3.169683   2.467371   -0.348304 H        1 UNL1     0.0600
     71 H         2.562886   0.537449   -1.130551 H        1 UNL1     0.0348
     72 H         0.955596   1.903208   -2.348488 H        1 UNL1     0.0602
     73 H         -2.317268   3.575216   1.09013 H        1 UNL1     0.0628
     74 H         -0.39528   5.632556   -0.148392 H        1 UNL1     0.1022
     75 H         -6.139126   -0.801187   -8.13247 H        1 UNL1     0.0279
     76 H         -6.131732   0.349662   -9.408711 H        1 UNL1     0.0279
     77 H         -4.665489   -0.62588   -8.991885 H        1 UNL1     0.0279
     78 H         -7.060391   0.046149   -6.34491 H        1 UNL1     0.1553
     79 H         -5.538969   -0.792025   -5.391513 H        1 UNL1     0.1484
     80 H         -4.382392   -1.343419   -1.814114 H        1 UNL1     0.0317
     81 H         -5.896221   -0.542884   -2.210838 H        1 UNL1     0.0317
     82 H         -6.327566   -2.158222   -4.081219 H        1 UNL1     0.0428
     83 H         -6.114702   -2.95279   -2.536857 H        1 UNL1     0.0428
     84 H         -2.756404   -2.937827   -5.149279 H        1 UNL1     0.0428
     85 H         -4.195428   -2.186048   -5.743552 H        1 UNL1     0.0428
     86 H         -2.431491   -0.681442   -4.821848 H        1 UNL1     0.0317
     87 H         -2.4968   -1.389235   -3.273586 H        1 UNL1     0.0317
     88 H         -4.700767   -4.56069   -5.316602 H        1 UNL1     0.0429
     89 H         -4.112637   -5.204765   -3.781837 H        1 UNL1     0.0429
     90 H         -6.906166   -4.587364   -4.708036 H        1 UNL1     0.0308
     91 H         -5.641707   -6.576151   -2.747801 H        1 UNL1     0.0233
     92 H         -7.403278   -6.419727   -2.96665 H        1 UNL1     0.0233
     93 H         -6.391743   -6.939849   -4.297392 H        1 UNL1     0.0233
     94 H         -7.572497   -4.281493   -2.211755 H        1 UNL1     0.0233
     95 H         -5.916396   -3.682622   -2.030059 H        1 UNL1     0.0233
     96 H         -7.032683   -2.879531   -3.158306 H        1 UNL1     0.0233
     97 H         -6.939799   7.099541   -1.006176 H        1 UNL1     0.0280
     98 H         -6.361408   7.955082   -2.409993 H        1 UNL1     0.0280
     99 H         -8.014904   7.272685   -2.405819 H        1 UNL1     0.0280
     100 H         -8.972434   4.716524   -4.343949 H        1 UNL1     0.2922
     101 H         1.200572   3.200651   -4.156057 H        1 UNL1     0.0236
     102 H         0.888579   2.320158   -5.703136 H        1 UNL1     0.0236
     103 H         1.92713   1.657458   -4.479316 H        1 UNL1     0.0236
     104 H         2.139712   -0.358915   -2.400421 H        1 UNL1     0.2098
     105 H         1.380289   -1.049284   -0.067781 H        1 UNL1     0.0234
     106 H         1.197426   0.224342   1.171386 H        1 UNL1     0.0234
     107 H         -0.0   0.0   0.0 H        1 UNL1     0.0234
     108 H         1.372315   3.428224   -1.415039 H        1 UNL1     0.2098
     109 H         -2.27796   1.56384   1.791466 H        1 UNL1     0.0234
     110 H         -1.066518   1.511493   0.471439 H        1 UNL1     0.0234
     111 H         -1.037618   0.328932   1.732216 H        1 UNL1     0.0234
     112 H         4.281938   -0.837172   3.934549 H        1 UNL1     0.0342
     113 H         4.442009   0.5709   2.825518 H        1 UNL1     0.0342
     114 H         3.595502   0.738953   4.366023 H        1 UNL1     0.0342
     115 H         4.06916   3.860206   2.032561 H        1 UNL1     0.0234
     116 H         2.505877   4.673596   1.908749 H        1 UNL1     0.0234
     117 H         3.011043   3.787401   3.362404 H        1 UNL1     0.0234
     118 H         -3.751947   4.676327   1.367252 H        1 UNL1     0.0309
     119 H         -5.3299   4.666678   0.519884 H        1 UNL1     0.0309
     120 H         -4.254451   3.286947   0.476228 H        1 UNL1     0.0309
     121 H         1.43516   6.356055   2.76358 H        1 UNL1     0.0524
     122 H         -0.056433   5.889251   3.590683 H        1 UNL1     0.0524
     123 H         1.441509   4.972904   3.891046 H        1 UNL1     0.0524
@<TRIPOS>BOND
     1     1     2    1
     2     1    42    1
     3     2     3    2
     4     3     4    1
     5     4     5    2
     6     5     7    1
     7     6    75    1
     8     6    76    1
     9     6    77    1
    10     7     9   am
    11     9    10    1
    12    10    11    2
    13    10    43    1
    14    11    14    1
    15    11    15    1
    16    12    13   ar
    17    12    27   ar
    18    12    43    1
    19    13    14    1
    20    13    30   ar
    21    14    17    2
    22    15    16    1
    23    16    17    1
    24    16    18    1
    25    16    22    1
    26    18    19    1
    27    19    20    1
    28    20    21    1
    29    21    22    1
    30    23    24    1
    31    23    88    1
    32    23    89    1
    33    24    25    1
    34    24    26    1
    35    24    90    1
    36    25    91    1
    37    25    92    1
    38    25    93    1
    39    26    94    1
    40    26    95    1
    41    26    96    1
    42    27    28   ar
    43    28    29   ar
    44    29    30   ar
    45    29    31    1
    46    30    33    1
    47    31    32    1
    48    32    33    1
    49    32    35    1
    50    34    97    1
    51    34    98    1
    52    34    99    1
    53    35    61    1
    54    36    37    1
    55    36    60    1
    56    37    38    1
    57    38    39    1
    58    39    40    1
    59    40    41    1
    60    41    42    1
    61    45   100    1
    62    47   101    1
    63    47   102    1
    64    47   103    1
    65    48   104    1
    66    49   105    1
    67    49   106    1
    68    49   107    1
    69    50   108    1
    70    51    59    1
    71    52   109    1
    72    52   110    1
    73    52   111    1
    74    53    54    1
    75    54    55    2
    76    54    56    1
    77    56   112    1
    78    56   113    1
    79    56   114    1
    80    57   115    1
    81    57   116    1
    82    57   117    1
    83    58   118    1
    84    58   119    1
    85    58   120    1
    86    59   121    1
    87    59   122    1
    88    59   123    1
    89    60    61    2
    90     1    47    1
    91     1    62    1
    92     2    63    1
    93     3    64    1
    94     4    65    1
    95     5     6    1
    96     7     8    2
    97     9    78    1
    98    15    79    1
    99    18    80    1
   100    18    81    1
   101    19    82    1
   102    19    83    1
   103    20    23    1
   104    21    84    1
   105    21    85    1
   106    22    86    1
   107    22    87    1
   108    27    45    1
   109    28    34    1
   110    32    58    1
   111    33    46    2
   112    36    51    1
   113    36    66    1
   114    37    52    1
   115    37    67    1
   116    38    53    1
   117    38    68    1
   118    42    48    1
   119    42    72    1
   120    43    44    2
   121    60    73    1
   122    61    74    1
   123    39    69    1
   124    39    57    1
   125    40    70    1
   126    40    50    1
   127    41    71    1
   128    41    49    1
