@<TRIPOS>MOLECULE
*****
 123 128 0 0 0
SMALL
GASTEIGER

@<TRIPOS>ATOM
     1 C         4.758953   2.330839   1.388571 C.3        1 UNL1     0.0009
     2 C         6.374345   2.11423   2.272101 C.2        1 UNL1     -0.0787
     3 C         7.21447   2.345299   3.428321 C.2        1 UNL1     -0.0649
     4 C         8.755874   1.716654   3.736923 C.2        1 UNL1     -0.0542
     5 C         9.717639   1.440315   4.73978 C.2        1 UNL1     0.0115
     6 C         10.079724   1.67447   6.232224 C.3        1 UNL1     -0.0348
     7 C         10.89811   0.400893   4.418717 C.2        1 UNL1     0.2441
     8 O         12.037974   0.751823   4.146535 O.2        1 UNL1     -0.2702
     9 N         10.602909   -0.938803   4.72567 N.am        1 UNL1     -0.2772
     10 C         9.992287   -1.5531   3.65651 C.2        1 UNL1     0.1049
     11 C         8.690746   -1.361325   3.540597 C.2        1 UNL1     0.0801
     12 C         10.198941   -1.906589   1.188783 C.ar        1 UNL1     0.0753
     13 C         8.833731   -1.487371   1.093557 C.ar        1 UNL1     0.0305
     14 C         7.997698   -1.32779   2.281258 C.2        1 UNL1     0.0924
     15 N         7.814357   -0.833524   4.412317 N.pl3        1 UNL1     -0.3170
     16 C         6.493703   -1.010903   3.869487 C.3        1 UNL1     0.1275
     17 N         6.701121   -1.046682   2.375024 N.2        1 UNL1     -0.2557
     18 C         6.025882   -2.408004   4.265664 C.3        1 UNL1     0.0016
     19 C         6.105307   -2.536687   5.778516 C.3        1 UNL1     0.0026
     20 N         5.263174   -1.511958   6.379989 N.3        1 UNL1     -0.3018
     21 C         5.597442   -0.135532   6.00839 C.3        1 UNL1     0.0026
     22 C         5.506853   -0.027766   4.485211 C.3        1 UNL1     0.0016
     23 C         5.031075   -1.731047   7.793769 C.3        1 UNL1     0.0012
     24 C         6.359214   -1.981976   8.525094 C.3        1 UNL1     -0.0339
     25 C         6.183666   -2.976624   9.684368 C.3        1 UNL1     -0.0615
     26 C         7.415331   -2.452282   7.540102 C.3        1 UNL1     -0.0615
     27 C         10.953353   -2.17298   0.048601 C.ar        1 UNL1     0.1347
     28 C         10.44187   -2.094073   -1.234446 C.ar        1 UNL1     0.0342
     29 C         9.11039   -1.632306   -1.305838 C.ar        1 UNL1     0.1435
     30 C         8.353694   -1.326935   -0.173857 C.ar        1 UNL1     0.0774
     31 O         8.435267   -1.606259   -2.475682 O.3        1 UNL1     -0.4436
     32 C         7.052129   -1.552175   -2.095055 C.3        1 UNL1     0.3143
     33 C         7.049079   -0.974663   -0.694097 C.2        1 UNL1     0.2504
     34 C         11.108389   -2.603018   -2.482174 C.3        1 UNL1     -0.0327
     35 O         6.413949   -0.590406   -2.944159 O.2        1 UNL1     -0.4528
     36 C         2.815319   -1.743656   -3.301881 C.3        1 UNL1     0.0854
     37 C         1.738285   -2.009841   -2.18087 C.3        1 UNL1     0.0236
     38 C         0.365047   -1.2006   -2.3572 C.3        1 UNL1     0.1131
     39 C         0.400042   0.362935   -2.594689 C.3        1 UNL1     0.0200
     40 C         1.424739   1.330342   -1.702188 C.3        1 UNL1     0.0661
     41 C         1.584106   1.316824   -0.013393 C.3        1 UNL1     0.0091
     42 C         3.044828   1.645215   1.046727 C.3        1 UNL1     0.0661
     43 C         10.758377   -2.134733   2.544232 C.2        1 UNL1     0.2131
     44 O         11.726204   -2.840603   2.762858 O.2        1 UNL1     -0.2851
     45 O         12.287803   -2.531786   0.227318 O.3        1 UNL1     -0.5056
     46 O         6.175163   -0.345993   -0.140113 O.2        1 UNL1     -0.2836
     47 C         4.635572   3.776741   0.837094 C.3        1 UNL1     -0.0566
     48 O         2.317384   2.55618   1.963289 O.3        1 UNL1     -0.3909
     49 C         0.915018   0.074022   0.529983 C.3        1 UNL1     -0.0577
     50 O         2.700064   1.401876   -2.307295 O.3        1 UNL1     -0.3910
     51 O         2.514396   -0.710259   -4.212357 O.3        1 UNL1     -0.3753
     52 C         2.398321   -2.231964   -0.780883 C.3        1 UNL1     -0.0564
     53 O         -0.753079   -1.721613   -1.50241 O.3        1 UNL1     -0.4608
     54 C         -1.702771   -0.953837   -0.880691 C.2        1 UNL1     0.3042
     55 O         -1.741727   -0.629543   0.305545 O.2        1 UNL1     -0.2512
     56 C         -2.759313   -0.432569   -1.812737 C.3        1 UNL1     0.0332
     57 C         0.325291   0.612855   -4.172703 C.3        1 UNL1     -0.0567
     58 C         6.558186   -3.016278   -2.032188 C.3        1 UNL1     0.0210
     59 C         2.164481   -1.149977   -5.523873 C.3        1 UNL1     0.0372
     60 C         4.193431   -1.487214   -2.801676 C.2        1 UNL1     -0.0208
     61 C         5.084755   -0.56192   -3.15961 C.2        1 UNL1     0.0882
     62 H         5.146989   1.715071   0.568223 H        1 UNL1     0.0365
     63 H         6.955155   1.591572   1.509239 H        1 UNL1     0.0576
     64 H         6.834102   2.846222   4.321351 H        1 UNL1     0.0615
     65 H         9.071606   1.314518   2.770443 H        1 UNL1     0.0622
     66 H         2.869063   -2.687405   -3.862679 H        1 UNL1     0.0645
     67 H         1.407701   -3.046406   -2.367437 H        1 UNL1     0.0362
     68 H         0.017853   -1.632475   -3.308232 H        1 UNL1     0.0741
     69 H         -0.574233   0.77208   -2.36275 H        1 UNL1     0.0359
     70 H         0.970152   2.320496   -1.897139 H        1 UNL1     0.0600
     71 H         0.845378   2.096748   0.256713 H        1 UNL1     0.0348
     72 H         3.273652   2.09197   0.068277 H        1 UNL1     0.0602
     73 H         4.475752   -2.268059   -2.139992 H        1 UNL1     0.0628
     74 H         4.859238   0.301865   -3.785912 H        1 UNL1     0.1022
     75 H         11.167789   1.491931   6.404936 H        1 UNL1     0.0279
     76 H         9.948988   2.685951   6.610224 H        1 UNL1     0.0279
     77 H         9.625907   0.929294   6.901899 H        1 UNL1     0.0279
     78 H         9.955749   -0.975292   5.510482 H        1 UNL1     0.1553
     79 H         7.990695   -0.747739   5.39643 H        1 UNL1     0.1484
     80 H         5.001364   -2.557876   3.904185 H        1 UNL1     0.0317
     81 H         6.642392   -3.177146   3.788184 H        1 UNL1     0.0317
     82 H         7.14139   -2.459844   6.139818 H        1 UNL1     0.0428
     83 H         5.769059   -3.540712   6.039135 H        1 UNL1     0.0428
     84 H         4.901774   0.608268   6.409163 H        1 UNL1     0.0428
     85 H         6.574229   0.170073   6.408153 H        1 UNL1     0.0428
     86 H         5.625685   1.016119   4.261219 H        1 UNL1     0.0317
     87 H         4.48351   -0.243405   4.154509 H        1 UNL1     0.0317
     88 H         4.569442   -0.825386   8.208458 H        1 UNL1     0.0429
     89 H         4.326055   -2.555925   7.958993 H        1 UNL1     0.0429
     90 H         6.730063   -1.033664   8.931775 H        1 UNL1     0.0308
     91 H         5.596061   -3.84667   9.376403 H        1 UNL1     0.0233
     92 H         7.154741   -3.312773   10.055347 H        1 UNL1     0.0233
     93 H         5.666165   -2.530788   10.542424 H        1 UNL1     0.0233
     94 H         8.210305   -2.990804   8.067214 H        1 UNL1     0.0233
     95 H         6.969575   -3.136552   6.812751 H        1 UNL1     0.0233
     96 H         7.864179   -1.611121   7.004422 H        1 UNL1     0.0233
     97 H         10.500284   -3.340858   -2.996985 H        1 UNL1     0.0280
     98 H         11.2898   -1.80196   -3.210634 H        1 UNL1     0.0280
     99 H         12.071975   -3.070553   -2.221388 H        1 UNL1     0.0280
     100 H         12.660911   -2.256631   1.046283 H        1 UNL1     0.2922
     101 H         4.234924   4.432142   1.610132 H        1 UNL1     0.0236
     102 H         4.061365   3.835538   -0.086925 H        1 UNL1     0.0236
     103 H         5.618304   4.209183   0.585254 H        1 UNL1     0.0236
     104 H         1.703007   3.08996   1.422373 H        1 UNL1     0.2098
     105 H         1.471363   -0.844942   0.363253 H        1 UNL1     0.0234
     106 H         0.603476   0.143227   1.572134 H        1 UNL1     0.0234
     107 H         -0.0   0.0   0.0 H        1 UNL1     0.0234
     108 H         3.31382   1.77741   -1.646958 H        1 UNL1     0.2098
     109 H         3.071257   -3.100743   -0.771387 H        1 UNL1     0.0234
     110 H         2.93333   -1.350038   -0.412486 H        1 UNL1     0.0234
     111 H         1.646163   -2.430109   -0.005677 H        1 UNL1     0.0234
     112 H         -3.471269   0.186988   -1.259009 H        1 UNL1     0.0342
     113 H         -2.331831   0.116972   -2.650058 H        1 UNL1     0.0342
     114 H         -3.308298   -1.291065   -2.223546 H        1 UNL1     0.0342
     115 H         -0.215954   1.537937   -4.414498 H        1 UNL1     0.0234
     116 H         1.300649   0.666038   -4.66045 H        1 UNL1     0.0234
     117 H         -0.282975   -0.136137   -4.708395 H        1 UNL1     0.0234
     118 H         5.849008   -3.249865   -2.845522 H        1 UNL1     0.0309
     119 H         7.373979   -3.745964   -2.047767 H        1 UNL1     0.0309
     120 H         5.980613   -3.226482   -1.125364 H        1 UNL1     0.0309
     121 H         1.07913   -1.238356   -5.563349 H        1 UNL1     0.0524
     122 H         2.467355   -0.429153   -6.301508 H        1 UNL1     0.0524
     123 H         2.626648   -2.110344   -5.734089 H        1 UNL1     0.0524
@<TRIPOS>BOND
     1     1     2    1
     2     1    42    1
     3     2     3    2
     4     3     4    1
     5     4     5    2
     6     5     7    1
     7     6    75    1
     8     6    76    1
     9     6    77    1
    10     7     9   am
    11     9    10    1
    12    10    11    2
    13    10    43    1
    14    11    14    1
    15    11    15    1
    16    12    13   ar
    17    12    27   ar
    18    12    43    1
    19    13    14    1
    20    13    30   ar
    21    14    17    2
    22    15    16    1
    23    16    17    1
    24    16    18    1
    25    16    22    1
    26    18    19    1
    27    19    20    1
    28    20    21    1
    29    21    22    1
    30    23    24    1
    31    23    88    1
    32    23    89    1
    33    24    25    1
    34    24    26    1
    35    24    90    1
    36    25    91    1
    37    25    92    1
    38    25    93    1
    39    26    94    1
    40    26    95    1
    41    26    96    1
    42    27    28   ar
    43    28    29   ar
    44    29    30   ar
    45    29    31    1
    46    30    33    1
    47    31    32    1
    48    32    33    1
    49    32    35    1
    50    34    97    1
    51    34    98    1
    52    34    99    1
    53    35    61    1
    54    36    37    1
    55    36    60    1
    56    37    38    1
    57    38    39    1
    58    39    40    1
    59    40    41    1
    60    41    42    1
    61    45   100    1
    62    47   101    1
    63    47   102    1
    64    47   103    1
    65    48   104    1
    66    49   105    1
    67    49   106    1
    68    49   107    1
    69    50   108    1
    70    51    59    1
    71    52   109    1
    72    52   110    1
    73    52   111    1
    74    53    54    1
    75    54    55    2
    76    54    56    1
    77    56   112    1
    78    56   113    1
    79    56   114    1
    80    57   115    1
    81    57   116    1
    82    57   117    1
    83    58   118    1
    84    58   119    1
    85    58   120    1
    86    59   121    1
    87    59   122    1
    88    59   123    1
    89    60    61    2
    90     1    47    1
    91     1    62    1
    92     2    63    1
    93     3    64    1
    94     4    65    1
    95     5     6    1
    96     7     8    2
    97     9    78    1
    98    15    79    1
    99    18    80    1
   100    18    81    1
   101    19    82    1
   102    19    83    1
   103    20    23    1
   104    21    84    1
   105    21    85    1
   106    22    86    1
   107    22    87    1
   108    27    45    1
   109    28    34    1
   110    32    58    1
   111    33    46    2
   112    36    51    1
   113    36    66    1
   114    37    52    1
   115    37    67    1
   116    38    53    1
   117    38    68    1
   118    42    48    1
   119    42    72    1
   120    43    44    2
   121    60    73    1
   122    61    74    1
   123    39    69    1
   124    39    57    1
   125    40    70    1
   126    40    50    1
   127    41    71    1
   128    41    49    1
