@<TRIPOS>MOLECULE
*****
 123 128 0 0 0
SMALL
GASTEIGER

@<TRIPOS>ATOM
     1 C         1.512397   3.517472   3.918137 C.3        1 UNL1     0.0009
     2 C         2.023835   5.257194   4.303933 C.2        1 UNL1     -0.0787
     3 C         3.057386   6.224675   4.606915 C.2        1 UNL1     -0.0649
     4 C         2.897812   7.902715   4.765271 C.2        1 UNL1     -0.0542
     5 C         3.585539   9.141182   4.747704 C.2        1 UNL1     0.0115
     6 C         4.994049   9.796223   4.729182 C.3        1 UNL1     -0.0348
     7 C         2.74416   10.494303   4.552424 C.2        1 UNL1     0.2441
     8 O         2.469502   11.24643   5.477298 O.2        1 UNL1     -0.2702
     9 N         2.568736   10.890987   3.215255 N.am        1 UNL1     -0.2772
     10 C         1.441634   10.306463   2.684883 C.2        1 UNL1     0.1049
     11 C         1.583348   9.073948   2.232064 C.2        1 UNL1     0.0801
     12 C         -0.984301   9.901162   3.140848 C.ar        1 UNL1     0.0753
     13 C         -0.730471   8.525099   2.839805 C.ar        1 UNL1     0.0305
     14 C         0.533345   8.091801   2.248135 C.2        1 UNL1     0.0924
     15 N         2.699164   8.35869   2.008707 N.pl3        1 UNL1     -0.3170
     16 C         2.314275   7.137539   1.352274 C.3        1 UNL1     0.1275
     17 N         0.900144   6.88831   1.816863 N.2        1 UNL1     -0.2557
     18 C         2.222955   7.43631   -0.141078 C.3        1 UNL1     0.0016
     19 C         3.553902   8.006078   -0.605333 C.3        1 UNL1     0.0026
     20 N         4.601377   7.032751   -0.328816 N.3        1 UNL1     -0.3018
     21 C         4.725751   6.635157   1.075043 C.3        1 UNL1     0.0026
     22 C         3.379069   6.061475   1.51915 C.3        1 UNL1     0.0016
     23 C         5.850111   7.343322   -0.995787 C.3        1 UNL1     0.0012
     24 C         5.604079   8.274752   -2.193144 C.3        1 UNL1     -0.0339
     25 C         6.202117   9.670554   -1.952015 C.3        1 UNL1     -0.0615
     26 C         6.148829   7.64502   -3.463367 C.3        1 UNL1     -0.0615
     27 C         -2.233038   10.323009   3.591203 C.ar        1 UNL1     0.1347
     28 C         -3.312653   9.470877   3.740712 C.ar        1 UNL1     0.0342
     29 C         -3.025716   8.113077   3.485348 C.ar        1 UNL1     0.1435
     30 C         -1.769727   7.670563   3.068343 C.ar        1 UNL1     0.0774
     31 O         -3.998737   7.175946   3.480585 O.3        1 UNL1     -0.4436
     32 C         -3.440996   6.077803   2.743102 C.3        1 UNL1     0.3143
     33 C         -1.939364   6.248707   2.853137 C.2        1 UNL1     0.2504
     34 C         -4.738291   9.886668   3.974749 C.3        1 UNL1     -0.0327
     35 O         -3.776966   4.876611   3.448448 O.2        1 UNL1     -0.4528
     36 C         -4.0445   2.160795   0.810104 C.3        1 UNL1     0.0854
     37 C         -2.967278   1.678508   -0.236086 C.3        1 UNL1     0.0236
     38 C         -2.642015   0.108677   -0.196378 C.3        1 UNL1     0.1131
     39 C         -2.28429   -0.584454   1.179802 C.3        1 UNL1     0.0200
     40 C         -1.244619   0.156052   2.253661 C.3        1 UNL1     0.0661
     41 C         0.279827   0.798484   1.878222 C.3        1 UNL1     0.0091
     42 C         1.176874   2.230022   2.593351 C.3        1 UNL1     0.0661
     43 C         0.099875   10.87824   2.872254 C.2        1 UNL1     0.2131
     44 O         -0.093032   12.069146   2.707128 O.2        1 UNL1     -0.2851
     45 O         -2.383567   11.672134   3.905273 O.3        1 UNL1     -0.5056
     46 O         -1.078262   5.399405   2.797974 O.2        1 UNL1     -0.2836
     47 C         1.559581   2.644467   5.200953 C.3        1 UNL1     -0.0566
     48 O         2.455912   1.495993   2.749489 O.3        1 UNL1     -0.3909
     49 C         0.408371   0.90349   0.374911 C.3        1 UNL1     -0.0577
     50 O         -1.947234   1.042673   3.100985 O.3        1 UNL1     -0.3910
     51 O         -4.456096   1.201256   1.757367 O.3        1 UNL1     -0.3753
     52 C         -1.853636   2.752677   -0.461725 C.3        1 UNL1     -0.0564
     53 O         -1.898355   -0.381302   -1.404359 O.3        1 UNL1     -0.4608
     54 C         -0.91308   -1.333739   -1.399317 C.2        1 UNL1     0.3042
     55 O         -0.728303   -2.221592   -2.23083 O.2        1 UNL1     -0.2512
     56 C         0.052171   -1.194452   -0.256687 C.3        1 UNL1     0.0332
     57 C         -3.630702   -1.22012   1.763991 C.3        1 UNL1     -0.0567
     58 C         -3.859785   6.283452   1.268703 C.3        1 UNL1     0.0210
     59 C         -5.776416   0.696063   1.563975 C.3        1 UNL1     0.0372
     60 C         -3.677214   3.385676   1.571635 C.2        1 UNL1     -0.0208
     61 C         -3.783555   3.659062   2.872671 C.2        1 UNL1     0.0882
     62 H         0.477498   3.865135   3.814091 H        1 UNL1     0.0365
     63 H         1.050101   5.748599   4.357153 H        1 UNL1     0.0576
     64 H         4.115354   5.95307   4.600445 H        1 UNL1     0.0615
     65 H         1.817855   8.0558   4.841032 H        1 UNL1     0.0622
     66 H         -4.917351   2.435058   0.201041 H        1 UNL1     0.0645
     67 H         -3.478615   1.772134   -1.209907 H        1 UNL1     0.0362
     68 H         -3.628694   -0.290752   -0.476456 H        1 UNL1     0.0741
     69 H         -1.786855   -1.523628   0.977517 H        1 UNL1     0.0359
     70 H         -0.994181   -0.705645   2.901597 H        1 UNL1     0.0600
     71 H         0.917978   -0.081868   2.089646 H        1 UNL1     0.0348
     72 H         0.41297   1.950427   3.333347 H        1 UNL1     0.0602
     73 H         -3.397817   4.150131   0.889877 H        1 UNL1     0.0628
     74 H         -4.007378   2.919245   3.641963 H        1 UNL1     0.1022
     75 H         5.234914   10.179134   3.708203 H        1 UNL1     0.0279
     76 H         5.125888   10.680778   5.348254 H        1 UNL1     0.0279
     77 H         5.803721   9.068155   4.884263 H        1 UNL1     0.0279
     78 H         3.364015   10.582566   2.659841 H        1 UNL1     0.1553
     79 H         3.610938   8.765652   1.90879 H        1 UNL1     0.1484
     80 H         1.974585   6.511756   -0.676127 H        1 UNL1     0.0317
     81 H         1.414955   8.145784   -0.349488 H        1 UNL1     0.0317
     82 H         3.773419   8.97101   -0.125093 H        1 UNL1     0.0428
     83 H         3.466153   8.213616   -1.672234 H        1 UNL1     0.0428
     84 H         5.464648   5.845557   1.243491 H        1 UNL1     0.0428
     85 H         5.073605   7.465007   1.705648 H        1 UNL1     0.0428
     86 H         3.544822   5.661358   2.502217 H        1 UNL1     0.0317
     87 H         3.134384   5.174503   0.92207 H        1 UNL1     0.0317
     88 H         6.500929   7.860476   -0.278651 H        1 UNL1     0.0429
     89 H         6.37455   6.430224   -1.30561 H        1 UNL1     0.0429
     90 H         4.524071   8.380004   -2.35036 H        1 UNL1     0.0308
     91 H         7.021656   9.632485   -1.228131 H        1 UNL1     0.0233
     92 H         6.569136   10.100345   -2.886994 H        1 UNL1     0.0233
     93 H         5.46317   10.379296   -1.558978 H        1 UNL1     0.0233
     94 H         6.034205   8.335109   -4.306263 H        1 UNL1     0.0233
     95 H         7.214653   7.429864   -3.346366 H        1 UNL1     0.0233
     96 H         5.625425   6.715479   -3.70414 H        1 UNL1     0.0233
     97 H         -5.402451   9.51998   3.197793 H        1 UNL1     0.0280
     98 H         -5.134565   9.492388   4.919613 H        1 UNL1     0.0280
     99 H         -4.803393   10.986887   3.994124 H        1 UNL1     0.0280
     100 H         -1.722894   12.016345   4.480297 H        1 UNL1     0.2922
     101 H         0.54542   2.40865   5.522705 H        1 UNL1     0.0236
     102 H         2.149352   3.090135   6.001285 H        1 UNL1     0.0236
     103 H         2.03011   1.664068   5.017613 H        1 UNL1     0.0236
     104 H         2.24084   0.585191   3.030832 H        1 UNL1     0.2098
     105 H         -0.146058   1.727715   -0.066761 H        1 UNL1     0.0234
     106 H         1.433158   0.895738   0.00386 H        1 UNL1     0.0234
     107 H         0.0   0.0   0.0 H        1 UNL1     0.0234
     108 H         -1.284719   1.608581   3.542109 H        1 UNL1     0.2098
     109 H         -2.259027   3.696375   -0.852625 H        1 UNL1     0.0234
     110 H         -1.26051   2.953063   0.437047 H        1 UNL1     0.0234
     111 H         -1.112935   2.418715   -1.200493 H        1 UNL1     0.0234
     112 H         -0.377721   -1.632606   0.649161 H        1 UNL1     0.0342
     113 H         1.021125   -1.636969   -0.48285 H        1 UNL1     0.0342
     114 H         0.210771   -0.12337   -0.070156 H        1 UNL1     0.0342
     115 H         -3.43567   -2.142956   2.327485 H        1 UNL1     0.0234
     116 H         -4.191554   -0.548792   2.4173 H        1 UNL1     0.0234
     117 H         -4.318161   -1.588469   0.983184 H        1 UNL1     0.0234
     118 H         -4.597139   5.53101   0.938331 H        1 UNL1     0.0309
     119 H         -4.255979   7.284371   1.070221 H        1 UNL1     0.0309
     120 H         -3.026409   6.143467   0.571569 H        1 UNL1     0.0309
     121 H         -5.721035   -0.092904   0.814429 H        1 UNL1     0.0524
     122 H         -6.193255   0.251956   2.483242 H        1 UNL1     0.0524
     123 H         -6.43651   1.489453   1.225001 H        1 UNL1     0.0524
@<TRIPOS>BOND
     1     1     2    1
     2     1    42    1
     3     2     3    2
     4     3     4    1
     5     4     5    2
     6     5     7    1
     7     6    75    1
     8     6    76    1
     9     6    77    1
    10     7     9   am
    11     9    10    1
    12    10    11    2
    13    10    43    1
    14    11    14    1
    15    11    15    1
    16    12    13   ar
    17    12    27   ar
    18    12    43    1
    19    13    14    1
    20    13    30   ar
    21    14    17    2
    22    15    16    1
    23    16    17    1
    24    16    18    1
    25    16    22    1
    26    18    19    1
    27    19    20    1
    28    20    21    1
    29    21    22    1
    30    23    24    1
    31    23    88    1
    32    23    89    1
    33    24    25    1
    34    24    26    1
    35    24    90    1
    36    25    91    1
    37    25    92    1
    38    25    93    1
    39    26    94    1
    40    26    95    1
    41    26    96    1
    42    27    28   ar
    43    28    29   ar
    44    29    30   ar
    45    29    31    1
    46    30    33    1
    47    31    32    1
    48    32    33    1
    49    32    35    1
    50    34    97    1
    51    34    98    1
    52    34    99    1
    53    35    61    1
    54    36    37    1
    55    36    60    1
    56    37    38    1
    57    38    39    1
    58    39    40    1
    59    40    41    1
    60    41    42    1
    61    45   100    1
    62    47   101    1
    63    47   102    1
    64    47   103    1
    65    48   104    1
    66    49   105    1
    67    49   106    1
    68    49   107    1
    69    50   108    1
    70    51    59    1
    71    52   109    1
    72    52   110    1
    73    52   111    1
    74    53    54    1
    75    54    55    2
    76    54    56    1
    77    56   112    1
    78    56   113    1
    79    56   114    1
    80    57   115    1
    81    57   116    1
    82    57   117    1
    83    58   118    1
    84    58   119    1
    85    58   120    1
    86    59   121    1
    87    59   122    1
    88    59   123    1
    89    60    61    2
    90     1    47    1
    91     1    62    1
    92     2    63    1
    93     3    64    1
    94     4    65    1
    95     5     6    1
    96     7     8    2
    97     9    78    1
    98    15    79    1
    99    18    80    1
   100    18    81    1
   101    19    82    1
   102    19    83    1
   103    20    23    1
   104    21    84    1
   105    21    85    1
   106    22    86    1
   107    22    87    1
   108    27    45    1
   109    28    34    1
   110    32    58    1
   111    33    46    2
   112    36    51    1
   113    36    66    1
   114    37    52    1
   115    37    67    1
   116    38    53    1
   117    38    68    1
   118    42    48    1
   119    42    72    1
   120    43    44    2
   121    60    73    1
   122    61    74    1
   123    39    69    1
   124    39    57    1
   125    40    70    1
   126    40    50    1
   127    41    71    1
   128    41    49    1
