@<TRIPOS>MOLECULE
*****
 123 128 0 0 0
SMALL
GASTEIGER

@<TRIPOS>ATOM
     1 C         3.310104   -0.428188   -3.068615 C.3        1 UNL1     0.0009
     2 C         5.124074   -0.804878   -3.000383 C.2        1 UNL1     -0.0787
     3 C         6.489622   -0.372635   -2.789455 C.2        1 UNL1     -0.0649
     4 C         7.88812   -1.325941   -2.747423 C.2        1 UNL1     -0.0542
     5 C         9.236351   -1.391072   -2.317178 C.2        1 UNL1     0.0115
     6 C         10.408007   -0.560331   -1.725221 C.3        1 UNL1     -0.0348
     7 C         9.95435   -2.823954   -2.225987 C.2        1 UNL1     0.2441
     8 O         10.742769   -3.228065   -3.06956 O.2        1 UNL1     -0.2702
     9 N         9.819655   -3.47238   -0.986006 N.am        1 UNL1     -0.2772
     10 C         8.670495   -4.228804   -0.961994 C.2        1 UNL1     0.1049
     11 C         7.555099   -3.583845   -0.671921 C.2        1 UNL1     0.0801
     12 C         7.390044   -5.933315   -2.270589 C.ar        1 UNL1     0.0753
     13 C         6.247136   -5.087934   -2.104153 C.ar        1 UNL1     0.0305
     14 C         6.263743   -3.950594   -1.186966 C.2        1 UNL1     0.0924
     15 N         7.375747   -2.342728   -0.188197 N.pl3        1 UNL1     -0.3170
     16 C         5.977565   -2.186441   0.113325 C.3        1 UNL1     0.1275
     17 N         5.278668   -3.128764   -0.836038 N.2        1 UNL1     -0.2557
     18 C         5.751049   -2.750162   1.512829 C.3        1 UNL1     0.0016
     19 C         6.685016   -2.040405   2.480063 C.3        1 UNL1     0.0026
     20 N         6.40384   -0.612029   2.438706 N.3        1 UNL1     -0.3018
     21 C         6.53485   0.009465   1.119255 C.3        1 UNL1     0.0026
     22 C         5.58469   -0.715881   0.164811 C.3        1 UNL1     0.0016
     23 C         7.022154   0.116234   3.528644 C.3        1 UNL1     0.0012
     24 C         6.0385   0.271512   4.699144 C.3        1 UNL1     -0.0339
     25 C         5.701492   1.749125   4.958263 C.3        1 UNL1     -0.0615
     26 C         4.787562   -0.550139   4.440645 C.3        1 UNL1     -0.0615
     27 C         7.328804   -7.084036   -3.053027 C.ar        1 UNL1     0.1347
     28 C         6.173845   -7.511748   -3.68325 C.ar        1 UNL1     0.0342
     29 C         5.074476   -6.637947   -3.545322 C.ar        1 UNL1     0.1435
     30 C         5.131214   -5.463168   -2.794393 C.ar        1 UNL1     0.0774
     31 O         3.849135   -6.968447   -4.008263 O.3        1 UNL1     -0.4436
     32 C         2.947552   -6.110662   -3.292564 C.3        1 UNL1     0.3143
     33 C         3.787784   -4.926657   -2.858563 C.2        1 UNL1     0.2504
     34 C         5.965712   -8.854814   -4.325866 C.3        1 UNL1     -0.0327
     35 O         1.988612   -5.618073   -4.236514 O.2        1 UNL1     -0.4528
     36 C         -1.207887   -5.046716   -2.270799 C.3        1 UNL1     0.0854
     37 C         -1.448938   -4.14136   -1.002041 C.3        1 UNL1     0.0236
     38 C         -2.624279   -3.061251   -1.155934 C.3        1 UNL1     0.1131
     39 C         -2.648891   -2.101437   -2.413082 C.3        1 UNL1     0.0200
     40 C         -1.246189   -1.375121   -2.949113 C.3        1 UNL1     0.0661
     41 C         -0.139062   -0.521876   -1.98794 C.3        1 UNL1     0.0091
     42 C         1.680847   -0.347209   -2.139032 C.3        1 UNL1     0.0661
     43 C         8.617881   -5.592333   -1.510059 C.2        1 UNL1     0.2131
     44 O         9.493565   -6.397352   -1.249563 O.2        1 UNL1     -0.2851
     45 O         8.498321   -7.826991   -3.200292 O.3        1 UNL1     -0.5056
     46 O         3.431846   -3.790789   -2.637283 O.2        1 UNL1     -0.2836
     47 C         2.968442   0.344674   -4.370895 C.3        1 UNL1     -0.0566
     48 O         1.669321   1.124221   -1.954975 O.3        1 UNL1     -0.3909
     49 C         -0.435676   -0.806434   -0.532419 C.3        1 UNL1     -0.0577
     50 O         -0.555538   -2.220542   -3.846881 O.3        1 UNL1     -0.3910
     51 O         -1.924196   -4.685897   -3.430171 O.3        1 UNL1     -0.3753
     52 C         -0.113153   -3.81582   -0.257291 C.3        1 UNL1     -0.0564
     53 O         -3.066731   -2.465202   0.148399 O.3        1 UNL1     -0.4608
     54 C         -4.293337   -1.904333   0.390879 C.2        1 UNL1     0.3042
     55 O         -4.811004   -1.684758   1.485249 O.2        1 UNL1     -0.2512
     56 C         -5.017389   -1.479794   -0.855006 C.3        1 UNL1     0.0332
     57 C         -3.610251   -2.763459   -3.506558 C.3        1 UNL1     -0.0567
     58 C         2.503098   -6.894434   -2.035706 C.3        1 UNL1     0.0210
     59 C         -1.131   -4.558112   -4.609313 C.3        1 UNL1     0.0372
     60 C         0.216611   -5.195913   -2.675405 C.2        1 UNL1     -0.0208
     61 C         0.784242   -5.131478   -3.880556 C.2        1 UNL1     0.0882
     62 H         3.117254   -1.488069   -3.273977 H        1 UNL1     0.0365
     63 H         5.126348   -1.852021   -3.31015 H        1 UNL1     0.0576
     64 H         6.724604   0.642754   -2.462536 H        1 UNL1     0.0615
     65 H         7.563358   -2.283531   -3.163396 H        1 UNL1     0.0622
     66 H         -1.540015   -6.048055   -1.962484 H        1 UNL1     0.0645
     67 H         -1.881903   -4.832344   -0.257971 H        1 UNL1     0.0362
     68 H         -3.480895   -3.739354   -1.289752 H        1 UNL1     0.0741
     69 H         -3.284864   -1.25463   -2.19203 H        1 UNL1     0.0359
     70 H         -1.67535   -0.581913   -3.590753 H        1 UNL1     0.0600
     71 H         -0.541306   0.504647   -2.094744 H        1 UNL1     0.0348
     72 H         1.324336   -0.672417   -3.12719 H        1 UNL1     0.0602
     73 H         0.787324   -5.50727   -1.836006 H        1 UNL1     0.0628
     74 H         0.284708   -4.7669   -4.778769 H        1 UNL1     0.1022
     75 H         10.83784   -1.071297   -0.830128 H        1 UNL1     0.0279
     76 H         11.280247   -0.429724   -2.361781 H        1 UNL1     0.0279
     77 H         10.075856   0.394181   -1.291304 H        1 UNL1     0.0279
     78 H         9.745914   -2.779563   -0.243951 H        1 UNL1     0.1553
     79 H         8.093857   -1.816002   0.2742 H        1 UNL1     0.1484
     80 H         4.700265   -2.604656   1.791123 H        1 UNL1     0.0317
     81 H         5.934348   -3.829789   1.534193 H        1 UNL1     0.0317
     82 H         7.741158   -2.24278   2.248717 H        1 UNL1     0.0428
     83 H         6.508235   -2.458811   3.471392 H        1 UNL1     0.0428
     84 H         6.241364   1.063648   1.099853 H        1 UNL1     0.0428
     85 H         7.577403   0.016339   0.772335 H        1 UNL1     0.0428
     86 H         5.608005   -0.153268   -0.750017 H        1 UNL1     0.0317
     87 H         4.549134   -0.60043   0.507437 H        1 UNL1     0.0317
     88 H         7.889941   -0.459915   3.875477 H        1 UNL1     0.0429
     89 H         7.396908   1.092187   3.194204 H        1 UNL1     0.0429
     90 H         6.490207   -0.147833   5.605964 H        1 UNL1     0.0308
     91 H         6.275214   2.409142   4.300751 H        1 UNL1     0.0233
     92 H         4.634973   1.93386   4.809877 H        1 UNL1     0.0233
     93 H         5.924265   2.053925   5.987973 H        1 UNL1     0.0233
     94 H         4.562854   -0.568968   3.368736 H        1 UNL1     0.0233
     95 H         4.942889   -1.581114   4.770685 H        1 UNL1     0.0233
     96 H         3.922924   -0.137225   4.96778 H        1 UNL1     0.0233
     97 H         6.897281   -9.285439   -4.680792 H        1 UNL1     0.0280
     98 H         5.543392   -9.587529   -3.625845 H        1 UNL1     0.0280
     99 H         5.283442   -8.750911   -5.185405 H        1 UNL1     0.0280
     100 H         8.491497   -8.428561   -3.923956 H        1 UNL1     0.2922
     101 H         3.857569   0.422547   -4.99623 H        1 UNL1     0.0236
     102 H         2.512467   1.316616   -4.185427 H        1 UNL1     0.0236
     103 H         2.235308   -0.195582   -4.992852 H        1 UNL1     0.0236
     104 H         1.999566   1.527468   -2.781595 H        1 UNL1     0.2098
     105 H         -1.494335   -0.833942   -0.286866 H        1 UNL1     0.0234
     106 H         0.06886   -1.683802   -0.127951 H        1 UNL1     0.0234
     107 H         0.0   0.0   0.0 H        1 UNL1     0.0234
     108 H         0.395906   -2.016557   -3.763748 H        1 UNL1     0.2098
     109 H         0.644388   -3.388884   -0.92928 H        1 UNL1     0.0234
     110 H         -0.251376   -3.155513   0.60563 H        1 UNL1     0.0234
     111 H         0.343015   -4.719164   0.169121 H        1 UNL1     0.0234
     112 H         -6.098188   -1.553248   -0.700655 H        1 UNL1     0.0342
     113 H         -4.735133   -0.476644   -1.171021 H        1 UNL1     0.0342
     114 H         -4.744766   -2.172428   -1.663151 H        1 UNL1     0.0342
     115 H         -4.143729   -3.636597   -3.106284 H        1 UNL1     0.0234
     116 H         -4.358139   -2.079422   -3.912522 H        1 UNL1     0.0234
     117 H         -3.066833   -3.215793   -4.353926 H        1 UNL1     0.0234
     118 H         1.631879   -7.541953   -2.237453 H        1 UNL1     0.0309
     119 H         3.305245   -7.498698   -1.600245 H        1 UNL1     0.0309
     120 H         2.149067   -6.237274   -1.23389 H        1 UNL1     0.0309
     121 H         -0.966319   -3.494945   -4.782264 H        1 UNL1     0.0524
     122 H         -0.142074   -5.03406   -4.501904 H        1 UNL1     0.0524
     123 H         -1.645007   -5.000701   -5.457844 H        1 UNL1     0.0524
@<TRIPOS>BOND
     1     1     2    1
     2     1    42    1
     3     2     3    2
     4     3     4    1
     5     4     5    2
     6     5     7    1
     7     6    75    1
     8     6    76    1
     9     6    77    1
    10     7     9   am
    11     9    10    1
    12    10    11    2
    13    10    43    1
    14    11    14    1
    15    11    15    1
    16    12    13   ar
    17    12    27   ar
    18    12    43    1
    19    13    14    1
    20    13    30   ar
    21    14    17    2
    22    15    16    1
    23    16    17    1
    24    16    18    1
    25    16    22    1
    26    18    19    1
    27    19    20    1
    28    20    21    1
    29    21    22    1
    30    23    24    1
    31    23    88    1
    32    23    89    1
    33    24    25    1
    34    24    26    1
    35    24    90    1
    36    25    91    1
    37    25    92    1
    38    25    93    1
    39    26    94    1
    40    26    95    1
    41    26    96    1
    42    27    28   ar
    43    28    29   ar
    44    29    30   ar
    45    29    31    1
    46    30    33    1
    47    31    32    1
    48    32    33    1
    49    32    35    1
    50    34    97    1
    51    34    98    1
    52    34    99    1
    53    35    61    1
    54    36    37    1
    55    36    60    1
    56    37    38    1
    57    38    39    1
    58    39    40    1
    59    40    41    1
    60    41    42    1
    61    45   100    1
    62    47   101    1
    63    47   102    1
    64    47   103    1
    65    48   104    1
    66    49   105    1
    67    49   106    1
    68    49   107    1
    69    50   108    1
    70    51    59    1
    71    52   109    1
    72    52   110    1
    73    52   111    1
    74    53    54    1
    75    54    55    2
    76    54    56    1
    77    56   112    1
    78    56   113    1
    79    56   114    1
    80    57   115    1
    81    57   116    1
    82    57   117    1
    83    58   118    1
    84    58   119    1
    85    58   120    1
    86    59   121    1
    87    59   122    1
    88    59   123    1
    89    60    61    2
    90     1    47    1
    91     1    62    1
    92     2    63    1
    93     3    64    1
    94     4    65    1
    95     5     6    1
    96     7     8    2
    97     9    78    1
    98    15    79    1
    99    18    80    1
   100    18    81    1
   101    19    82    1
   102    19    83    1
   103    20    23    1
   104    21    84    1
   105    21    85    1
   106    22    86    1
   107    22    87    1
   108    27    45    1
   109    28    34    1
   110    32    58    1
   111    33    46    2
   112    36    51    1
   113    36    66    1
   114    37    52    1
   115    37    67    1
   116    38    53    1
   117    38    68    1
   118    42    48    1
   119    42    72    1
   120    43    44    2
   121    60    73    1
   122    61    74    1
   123    39    69    1
   124    39    57    1
   125    40    70    1
   126    40    50    1
   127    41    71    1
   128    41    49    1
