@<TRIPOS>MOLECULE
*****
 123 128 0 0 0
SMALL
GASTEIGER

@<TRIPOS>ATOM
     1 C         5.15176   0.55435   1.775202 C.3        1 UNL1     0.0009
     2 C         6.905282   0.934157   1.30836 C.2        1 UNL1     -0.0787
     3 C         8.248015   0.488377   1.001121 C.2        1 UNL1     -0.0649
     4 C         9.557943   1.420374   0.470247 C.2        1 UNL1     -0.0542
     5 C         10.817398   1.390176   -0.17778 C.2        1 UNL1     0.0115
     6 C         11.936936   0.451227   -0.705351 C.3        1 UNL1     -0.0348
     7 C         11.417263   2.75466   -0.77388 C.2        1 UNL1     0.2441
     8 O         12.296991   3.395008   -0.214809 O.2        1 UNL1     -0.2702
     9 N         11.052405   3.026952   -2.103875 N.am        1 UNL1     -0.2772
     10 C         9.865847   3.722532   -2.143513 C.2        1 UNL1     0.1049
     11 C         8.764077   2.999301   -2.058292 C.2        1 UNL1     0.0801
     12 C         8.691048   5.69855   -1.157342 C.ar        1 UNL1     0.0753
     13 C         7.594212   4.81702   -0.895686 C.ar        1 UNL1     0.0305
     14 C         7.545263   3.468921   -1.457188 C.2        1 UNL1     0.0924
     15 N         8.594933   1.668957   -2.14831 N.pl3        1 UNL1     -0.3170
     16 C         7.180437   1.405699   -2.160686 C.3        1 UNL1     0.1275
     17 N         6.574333   2.561579   -1.402859 N.2        1 UNL1     -0.2557
     18 C         6.706238   1.550127   -3.603592 C.3        1 UNL1     0.0016
     19 C         7.526119   0.617296   -4.48064 C.3        1 UNL1     0.0026
     20 N         7.349086   -0.747817   -4.005084 N.3        1 UNL1     -0.3018
     21 C         7.720679   -0.972081   -2.606516 C.3        1 UNL1     0.0026
     22 C         6.881852   -0.028203   -1.743173 C.3        1 UNL1     0.0016
     23 C         7.840183   -1.739279   -4.941284 C.3        1 UNL1     0.0012
     24 C         6.937626   -1.800624   -6.183614 C.3        1 UNL1     -0.0339
     25 C         7.553636   -1.032789   -7.364723 C.3        1 UNL1     -0.0615
     26 C         6.648934   -3.246866   -6.546685 C.3        1 UNL1     -0.0615
     27 C         8.674523   7.020834   -0.719837 C.ar        1 UNL1     0.1347
     28 C         7.603792   7.584033   -0.048724 C.ar        1 UNL1     0.0342
     29 C         6.556112   6.684107   0.240525 C.ar        1 UNL1     0.1435
     30 C         6.574593   5.347464   -0.159806 C.ar        1 UNL1     0.0774
     31 O         5.396818   7.105706   0.79125 O.3        1 UNL1     -0.4436
     32 C         4.454862   6.063418   0.495905 C.3        1 UNL1     0.3143
     33 C         5.294945   4.822827   0.269172 C.2        1 UNL1     0.2504
     34 C         7.408416   9.048736   0.227992 C.3        1 UNL1     -0.0327
     35 O         3.68585   5.835248   1.683259 O.2        1 UNL1     -0.4528
     36 C         0.271162   4.670492   0.503708 C.3        1 UNL1     0.0854
     37 C         -0.100811   3.441271   -0.411811 C.3        1 UNL1     0.0236
     38 C         -1.165266   2.423501   0.222872 C.3        1 UNL1     0.1131
     39 C         -0.934402   1.853875   1.680438 C.3        1 UNL1     0.0200
     40 C         0.5784   1.335812   2.155285 C.3        1 UNL1     0.0661
     41 C         1.579389   0.270533   1.294581 C.3        1 UNL1     0.0091
     42 C         3.408519   0.182715   1.18515 C.3        1 UNL1     0.0661
     43 C         9.808036   5.1836   -1.987659 C.2        1 UNL1     0.2131
     44 O         10.578808   5.901321   -2.598825 O.2        1 UNL1     -0.2851
     45 O         9.801402   7.79924   -0.976091 O.3        1 UNL1     -0.5056
     46 O         4.984842   3.663357   0.428292 O.2        1 UNL1     -0.2836
     47 C         5.064591   0.170258   3.27682 C.3        1 UNL1     -0.0566
     48 O         3.46578   -1.281292   1.414326 O.3        1 UNL1     -0.3909
     49 C         1.045865   0.129897   -0.113633 C.3        1 UNL1     -0.0577
     50 O         1.340984   2.412875   2.66137 O.3        1 UNL1     -0.3910
     51 O         -0.234356   4.63412   1.819216 O.3        1 UNL1     -0.3753
     52 C         1.124015   2.947787   -1.249201 C.3        1 UNL1     -0.0564
     53 O         -1.761607   1.477028   -0.777574 O.3        1 UNL1     -0.4608
     54 C         -2.353088   0.276685   -0.482183 C.2        1 UNL1     0.3042
     55 O         -1.889653   -0.848722   -0.662529 O.2        1 UNL1     -0.2512
     56 C         -3.691979   0.414056   0.185061 C.3        1 UNL1     0.0332
     57 C         -1.758872   2.775682   2.694684 C.3        1 UNL1     -0.0567
     58 C         3.773082   6.4545   -0.835921 C.3        1 UNL1     0.0210
     59 C         -0.423676   5.912433   2.424144 C.3        1 UNL1     0.0372
     60 C         1.727819   4.956355   0.611377 C.2        1 UNL1     -0.0208
     61 C         2.47587   5.243723   1.677484 C.2        1 UNL1     0.0882
     62 H         4.923281   1.625121   1.7123 H        1 UNL1     0.0365
     63 H         6.885996   2.025964   1.315686 H        1 UNL1     0.0576
     64 H         8.496547   -0.572868   0.929718 H        1 UNL1     0.0615
     65 H         9.238285   2.449236   0.656646 H        1 UNL1     0.0622
     66 H         -0.169271   5.538347   -0.007067 H        1 UNL1     0.0645
     67 H         -0.686834   3.887146   -1.234205 H        1 UNL1     0.0362
     68 H         -2.034096   3.094141   0.305925 H        1 UNL1     0.0741
     69 H         -1.53961   0.966127   1.807068 H        1 UNL1     0.0359
     70 H         0.305376   0.745373   3.050774 H        1 UNL1     0.0600
     71 H         1.26655   -0.693063   1.742433 H        1 UNL1     0.0348
     72 H         3.186533   0.764231   2.091724 H        1 UNL1     0.0602
     73 H         2.141896   5.031865   -0.363347 H        1 UNL1     0.0628
     74 H         2.144463   5.135072   2.710733 H        1 UNL1     0.1022
     75 H         11.637185   -0.6185   -0.591917 H        1 UNL1     0.0279
     76 H         12.166858   0.518842   -1.76631 H        1 UNL1     0.0279
     77 H         12.847661   0.487626   -0.089757 H        1 UNL1     0.0279
     78 H         10.911892   2.152676   -2.605845 H        1 UNL1     0.1553
     79 H         9.267042   1.048727   -2.561246 H        1 UNL1     0.1484
     80 H         5.637143   1.310883   -3.654225 H        1 UNL1     0.0317
     81 H         6.81274   2.584107   -3.948836 H        1 UNL1     0.0317
     82 H         8.589587   0.898085   -4.490913 H        1 UNL1     0.0428
     83 H         7.172866   0.737594   -5.505233 H        1 UNL1     0.0428
     84 H         7.503552   -1.98446   -2.251895 H        1 UNL1     0.0428
     85 H         8.802159   -0.860034   -2.447883 H        1 UNL1     0.0428
     86 H         7.081572   -0.311493   -0.726391 H        1 UNL1     0.0317
     87 H         5.815971   -0.256305   -1.865495 H        1 UNL1     0.0317
     88 H         8.848776   -1.441401   -5.25641 H        1 UNL1     0.0429
     89 H         7.929359   -2.725374   -4.467536 H        1 UNL1     0.0429
     90 H         5.966098   -1.352231   -5.94426 H        1 UNL1     0.0308
     91 H         8.547247   -1.417061   -7.614073 H        1 UNL1     0.0233
     92 H         6.911567   -1.099927   -8.246113 H        1 UNL1     0.0233
     93 H         7.670336   0.036809   -7.152173 H        1 UNL1     0.0233
     94 H         6.214728   -3.304804   -7.550649 H        1 UNL1     0.0233
     95 H         7.577539   -3.824494   -6.547157 H        1 UNL1     0.0233
     96 H         5.949524   -3.703526   -5.840812 H        1 UNL1     0.0233
     97 H         6.444432   9.252068   0.684743 H        1 UNL1     0.0280
     98 H         8.160081   9.442116   0.924775 H        1 UNL1     0.0280
     99 H         7.469495   9.614074   -0.716338 H        1 UNL1     0.0280
     100 H         9.621855   8.621189   -1.397736 H        1 UNL1     0.2922
     101 H         4.019685   0.100308   3.578372 H        1 UNL1     0.0236
     102 H         5.633147   0.837584   3.923662 H        1 UNL1     0.0236
     103 H         5.480101   -0.83234   3.472631 H        1 UNL1     0.0236
     104 H         3.516228   -1.427028   2.379306 H        1 UNL1     0.2098
     105 H         1.20641   1.001056   -0.743808 H        1 UNL1     0.0234
     106 H         1.362339   -0.774989   -0.632239 H        1 UNL1     0.0234
     107 H         0.0   -0.0   0.0 H        1 UNL1     0.0234
     108 H         1.539423   3.005637   1.911021 H        1 UNL1     0.2098
     109 H         1.968575   2.64724   -0.61351 H        1 UNL1     0.0234
     110 H         0.874793   2.132551   -1.936968 H        1 UNL1     0.0234
     111 H         1.511881   3.739375   -1.904102 H        1 UNL1     0.0234
     112 H         -4.098182   -0.576375   0.411759 H        1 UNL1     0.0342
     113 H         -3.641506   1.030202   1.081532 H        1 UNL1     0.0342
     114 H         -4.377254   0.906059   -0.518854 H        1 UNL1     0.0342
     115 H         -2.811378   2.872942   2.394752 H        1 UNL1     0.0234
     116 H         -1.743106   2.423221   3.727918 H        1 UNL1     0.0234
     117 H         -1.437542   3.83146   2.690064 H        1 UNL1     0.0234
     118 H         2.94165   7.164706   -0.683164 H        1 UNL1     0.0309
     119 H         4.470436   6.871834   -1.569224 H        1 UNL1     0.0309
     120 H         3.29045   5.60251   -1.327131 H        1 UNL1     0.0309
     121 H         -0.35809   5.779297   3.503648 H        1 UNL1     0.0524
     122 H         0.356917   6.633924   2.13061 H        1 UNL1     0.0524
     123 H         -1.395741   6.315558   2.154563 H        1 UNL1     0.0524
@<TRIPOS>BOND
     1     1     2    1
     2     1    42    1
     3     2     3    2
     4     3     4    1
     5     4     5    2
     6     5     7    1
     7     6    75    1
     8     6    76    1
     9     6    77    1
    10     7     9   am
    11     9    10    1
    12    10    11    2
    13    10    43    1
    14    11    14    1
    15    11    15    1
    16    12    13   ar
    17    12    27   ar
    18    12    43    1
    19    13    14    1
    20    13    30   ar
    21    14    17    2
    22    15    16    1
    23    16    17    1
    24    16    18    1
    25    16    22    1
    26    18    19    1
    27    19    20    1
    28    20    21    1
    29    21    22    1
    30    23    24    1
    31    23    88    1
    32    23    89    1
    33    24    25    1
    34    24    26    1
    35    24    90    1
    36    25    91    1
    37    25    92    1
    38    25    93    1
    39    26    94    1
    40    26    95    1
    41    26    96    1
    42    27    28   ar
    43    28    29   ar
    44    29    30   ar
    45    29    31    1
    46    30    33    1
    47    31    32    1
    48    32    33    1
    49    32    35    1
    50    34    97    1
    51    34    98    1
    52    34    99    1
    53    35    61    1
    54    36    37    1
    55    36    60    1
    56    37    38    1
    57    38    39    1
    58    39    40    1
    59    40    41    1
    60    41    42    1
    61    45   100    1
    62    47   101    1
    63    47   102    1
    64    47   103    1
    65    48   104    1
    66    49   105    1
    67    49   106    1
    68    49   107    1
    69    50   108    1
    70    51    59    1
    71    52   109    1
    72    52   110    1
    73    52   111    1
    74    53    54    1
    75    54    55    2
    76    54    56    1
    77    56   112    1
    78    56   113    1
    79    56   114    1
    80    57   115    1
    81    57   116    1
    82    57   117    1
    83    58   118    1
    84    58   119    1
    85    58   120    1
    86    59   121    1
    87    59   122    1
    88    59   123    1
    89    60    61    2
    90     1    47    1
    91     1    62    1
    92     2    63    1
    93     3    64    1
    94     4    65    1
    95     5     6    1
    96     7     8    2
    97     9    78    1
    98    15    79    1
    99    18    80    1
   100    18    81    1
   101    19    82    1
   102    19    83    1
   103    20    23    1
   104    21    84    1
   105    21    85    1
   106    22    86    1
   107    22    87    1
   108    27    45    1
   109    28    34    1
   110    32    58    1
   111    33    46    2
   112    36    51    1
   113    36    66    1
   114    37    52    1
   115    37    67    1
   116    38    53    1
   117    38    68    1
   118    42    48    1
   119    42    72    1
   120    43    44    2
   121    60    73    1
   122    61    74    1
   123    39    69    1
   124    39    57    1
   125    40    70    1
   126    40    50    1
   127    41    71    1
   128    41    49    1
