@<TRIPOS>MOLECULE
*****
 123 128 0 0 0
SMALL
GASTEIGER

@<TRIPOS>ATOM
     1 C         3.697727   -3.944042   -0.635954 C.3        1 UNL1     0.0009
     2 C         3.956597   -5.683795   -1.22186 C.2        1 UNL1     -0.0787
     3 C         4.207856   -7.080843   -0.936955 C.2        1 UNL1     -0.0649
     4 C         4.227828   -8.377561   -2.025293 C.2        1 UNL1     -0.0542
     5 C         4.129214   -9.784722   -2.156641 C.2        1 UNL1     0.0115
     6 C         4.094596   -11.121266   -1.365582 C.3        1 UNL1     -0.0348
     7 C         3.805239   -10.409476   -3.599455 C.2        1 UNL1     0.2441
     8 O         4.659891   -10.919129   -4.311036 O.2        1 UNL1     -0.2702
     9 N         2.436657   -10.567559   -3.879 N.am        1 UNL1     -0.2772
     10 C         1.925889   -9.420545   -4.441848 C.2        1 UNL1     0.1049
     11 C         1.576521   -8.464796   -3.600001 C.2        1 UNL1     0.0801
     12 C         2.350472   -7.734399   -6.240174 C.ar        1 UNL1     0.0753
     13 C         2.166657   -6.732046   -5.235133 C.ar        1 UNL1     0.0305
     14 C         1.643943   -7.062684   -3.911313 C.2        1 UNL1     0.0924
     15 N         1.439513   -8.498574   -2.263358 N.pl3        1 UNL1     -0.3170
     16 C         0.872863   -7.242976   -1.847864 C.3        1 UNL1     0.1275
     17 N         1.319494   -6.259596   -2.902002 N.2        1 UNL1     -0.2557
     18 C         -0.641397   -7.360311   -1.99261 C.3        1 UNL1     0.0016
     19 C         -1.115372   -8.559958   -1.18776 C.3        1 UNL1     0.0026
     20 N         -0.735442   -8.368436   0.205078 N.3        1 UNL1     -0.3018
     21 C         0.698362   -8.184055   0.438702 C.3        1 UNL1     0.0026
     22 C         1.152169   -6.971232   -0.375556 C.3        1 UNL1     0.0016
     23 C         -1.392866   -9.298039   1.101892 C.3        1 UNL1     0.0012
     24 C         -1.24462   -10.73867   0.587733 C.3        1 UNL1     -0.0339
     25 C         -0.211725   -11.526004   1.410709 C.3        1 UNL1     -0.0615
     26 C         -2.596831   -11.43021   0.578903 C.3        1 UNL1     -0.0615
     27 C         2.733665   -7.395673   -7.535761 C.ar        1 UNL1     0.1347
     28 C         2.922937   -6.090446   -7.953622 C.ar        1 UNL1     0.0342
     29 C         2.784032   -5.124223   -6.934661 C.ar        1 UNL1     0.1435
     30 C         2.435905   -5.451784   -5.623657 C.ar        1 UNL1     0.0774
     31 O         2.829076   -3.801719   -7.206622 O.3        1 UNL1     -0.4436
     32 C         2.195981   -3.177879   -6.079286 C.3        1 UNL1     0.3143
     33 C         2.330439   -4.17593   -4.947019 C.2        1 UNL1     0.2504
     34 C         3.086527   -5.635309   -9.377065 C.3        1 UNL1     -0.0327
     35 O         2.985991   -2.036116   -5.725009 O.2        1 UNL1     -0.4528
     36 C         0.566519   0.482745   -4.238542 C.3        1 UNL1     0.0854
     37 C         -0.40999   0.32149   -3.010557 C.3        1 UNL1     0.0236
     38 C         -0.236978   1.425135   -1.860002 C.3        1 UNL1     0.1131
     39 C         1.198772   1.721436   -1.265781 C.3        1 UNL1     0.0200
     40 C         2.236449   0.46802   -0.898886 C.3        1 UNL1     0.0661
     41 C         1.850139   -0.905676   0.018356 C.3        1 UNL1     0.0091
     42 C         2.471618   -2.627765   -0.098152 C.3        1 UNL1     0.0661
     43 C         2.032691   -9.138811   -5.881145 C.2        1 UNL1     0.2131
     44 O         1.768289   -9.9997   -6.700717 O.2        1 UNL1     -0.2851
     45 O         2.935251   -8.435161   -8.441446 O.3        1 UNL1     -0.5056
     46 O         2.365199   -3.963632   -3.755559 O.2        1 UNL1     -0.2836
     47 C         5.046829   -3.318941   -0.189688 C.3        1 UNL1     -0.0566
     48 O         2.718446   -2.758137   1.358281 O.3        1 UNL1     -0.3909
     49 C         0.347025   -0.98799   0.164528 C.3        1 UNL1     -0.0577
     50 O         2.992151   0.094601   -2.033432 O.3        1 UNL1     -0.3910
     51 O         1.576401   1.456427   -4.098845 O.3        1 UNL1     -0.3753
     52 C         -0.691951   -1.181636   -2.684885 C.3        1 UNL1     -0.0564
     53 O         -1.382634   1.467728   -0.891506 O.3        1 UNL1     -0.4608
     54 C         -1.274652   1.671027   0.459398 C.2        1 UNL1     0.3042
     55 O         -1.747936   2.598167   1.115334 O.2        1 UNL1     -0.2512
     56 C         -0.531558   0.578681   1.174452 C.3        1 UNL1     0.0332
     57 C         1.797117   2.977882   -2.054134 C.3        1 UNL1     -0.0567
     58 C         0.699648   -3.033857   -6.442293 C.3        1 UNL1     0.0210
     59 C         2.907346   0.942291   -4.088067 C.3        1 UNL1     0.0372
     60 C         1.23715   -0.771308   -4.677591 C.2        1 UNL1     -0.0208
     61 C         2.509109   -1.002236   -5.005521 C.2        1 UNL1     0.0882
     62 H         3.539851   -3.637301   -1.676962 H        1 UNL1     0.0365
     63 H         3.945544   -5.537942   -2.304022 H        1 UNL1     0.0576
     64 H         4.250133   -7.457528   0.087461 H        1 UNL1     0.0615
     65 H         4.263483   -7.894536   -3.005548 H        1 UNL1     0.0622
     66 H         -0.084604   0.783712   -5.071311 H        1 UNL1     0.0645
     67 H         -1.400943   0.584476   -3.419716 H        1 UNL1     0.0362
     68 H         -0.509489   2.327546   -2.428257 H        1 UNL1     0.0741
     69 H         1.084782   2.221455   -0.313208 H        1 UNL1     0.0359
     70 H         2.957199   1.000994   -0.249641 H        1 UNL1     0.0600
     71 H         2.147319   -0.555005   1.026161 H        1 UNL1     0.0348
     72 H         3.211751   -2.002429   -0.618223 H        1 UNL1     0.0602
     73 H         0.504007   -1.523236   -4.833651 H        1 UNL1     0.0628
     74 H         3.328938   -0.306567   -4.823416 H        1 UNL1     0.1022
     75 H         4.347629   -11.979177   -2.03416 H        1 UNL1     0.0279
     76 H         4.819994   -11.228453   -0.562227 H        1 UNL1     0.0279
     77 H         3.081341   -11.394471   -1.036381 H        1 UNL1     0.0279
     78 H         1.928127   -10.73686   -3.013661 H        1 UNL1     0.1553
     79 H         1.330845   -9.345235   -1.735827 H        1 UNL1     0.1484
     80 H         -1.107236   -6.432146   -1.640089 H        1 UNL1     0.0317
     81 H         -0.926302   -7.474328   -3.044028 H        1 UNL1     0.0317
     82 H         -0.708108   -9.502135   -1.583174 H        1 UNL1     0.0428
     83 H         -2.197316   -8.626156   -1.306361 H        1 UNL1     0.0428
     84 H         0.948063   -7.962932   1.481086 H        1 UNL1     0.0428
     85 H         1.269515   -9.095716   0.215151 H        1 UNL1     0.0428
     86 H         2.167918   -6.786723   -0.078573 H        1 UNL1     0.0317
     87 H         0.621617   -6.072872   -0.03709 H        1 UNL1     0.0317
     88 H         -0.907876   -9.225886   2.084172 H        1 UNL1     0.0429
     89 H         -2.448965   -9.035221   1.244572 H        1 UNL1     0.0429
     90 H         -0.91358   -10.714803   -0.457282 H        1 UNL1     0.0308
     91 H         -0.383918   -12.604076   1.33851 H        1 UNL1     0.0233
     92 H         0.802972   -11.301526   1.073649 H        1 UNL1     0.0233
     93 H         -0.243685   -11.26942   2.476532 H        1 UNL1     0.0233
     94 H         -3.328726   -10.8217   0.036795 H        1 UNL1     0.0233
     95 H         -2.519335   -12.39587   0.071499 H        1 UNL1     0.0233
     96 H         -2.967969   -11.59388   1.5945 H        1 UNL1     0.0233
     97 H         3.792893   -6.252939   -9.923699 H        1 UNL1     0.0280
     98 H         2.144717   -5.686835   -9.938844 H        1 UNL1     0.0280
     99 H         3.452525   -4.595642   -9.39234 H        1 UNL1     0.0280
     100 H         2.167975   -8.688393   -8.923922 H        1 UNL1     0.2922
     101 H         5.822715   -3.562439   -0.915199 H        1 UNL1     0.0236
     102 H         5.3333   -3.596477   0.824161 H        1 UNL1     0.0236
     103 H         5.009288   -2.216817   -0.179357 H        1 UNL1     0.0236
     104 H         3.664745   -2.969911   1.479272 H        1 UNL1     0.2098
     105 H         -0.139768   -1.636514   -0.55953 H        1 UNL1     0.0234
     106 H         -0.00064   -1.218095   1.171558 H        1 UNL1     0.0234
     107 H         0.0   0.0   0.0 H        1 UNL1     0.0234
     108 H         2.374851   0.040772   -2.788291 H        1 UNL1     0.2098
     109 H         -0.280781   -1.480373   -1.710509 H        1 UNL1     0.0234
     110 H         -1.755678   -1.439214   -2.728245 H        1 UNL1     0.0234
     111 H         -0.226057   -1.849649   -3.421531 H        1 UNL1     0.0234
     112 H         0.166047   1.014014   1.896378 H        1 UNL1     0.0342
     113 H         -1.205743   -0.126144   1.658745 H        1 UNL1     0.0342
     114 H         0.056175   0.020915   0.432406 H        1 UNL1     0.0342
     115 H         2.555682   3.508078   -1.461969 H        1 UNL1     0.0234
     116 H         2.248795   2.724786   -3.015372 H        1 UNL1     0.0234
     117 H         1.060283   3.781484   -2.225135 H        1 UNL1     0.0234
     118 H         0.510803   -3.237469   -7.510884 H        1 UNL1     0.0309
     119 H         0.047252   -3.670001   -5.835743 H        1 UNL1     0.0309
     120 H         0.331986   -2.010236   -6.311412 H        1 UNL1     0.0309
     121 H         3.108916   0.570181   -3.083946 H        1 UNL1     0.0524
     122 H         3.035666   0.098769   -4.786668 H        1 UNL1     0.0524
     123 H         3.614753   1.725076   -4.34675 H        1 UNL1     0.0524
@<TRIPOS>BOND
     1     1     2    1
     2     1    42    1
     3     2     3    2
     4     3     4    1
     5     4     5    2
     6     5     7    1
     7     6    75    1
     8     6    76    1
     9     6    77    1
    10     7     9   am
    11     9    10    1
    12    10    11    2
    13    10    43    1
    14    11    14    1
    15    11    15    1
    16    12    13   ar
    17    12    27   ar
    18    12    43    1
    19    13    14    1
    20    13    30   ar
    21    14    17    2
    22    15    16    1
    23    16    17    1
    24    16    18    1
    25    16    22    1
    26    18    19    1
    27    19    20    1
    28    20    21    1
    29    21    22    1
    30    23    24    1
    31    23    88    1
    32    23    89    1
    33    24    25    1
    34    24    26    1
    35    24    90    1
    36    25    91    1
    37    25    92    1
    38    25    93    1
    39    26    94    1
    40    26    95    1
    41    26    96    1
    42    27    28   ar
    43    28    29   ar
    44    29    30   ar
    45    29    31    1
    46    30    33    1
    47    31    32    1
    48    32    33    1
    49    32    35    1
    50    34    97    1
    51    34    98    1
    52    34    99    1
    53    35    61    1
    54    36    37    1
    55    36    60    1
    56    37    38    1
    57    38    39    1
    58    39    40    1
    59    40    41    1
    60    41    42    1
    61    45   100    1
    62    47   101    1
    63    47   102    1
    64    47   103    1
    65    48   104    1
    66    49   105    1
    67    49   106    1
    68    49   107    1
    69    50   108    1
    70    51    59    1
    71    52   109    1
    72    52   110    1
    73    52   111    1
    74    53    54    1
    75    54    55    2
    76    54    56    1
    77    56   112    1
    78    56   113    1
    79    56   114    1
    80    57   115    1
    81    57   116    1
    82    57   117    1
    83    58   118    1
    84    58   119    1
    85    58   120    1
    86    59   121    1
    87    59   122    1
    88    59   123    1
    89    60    61    2
    90     1    47    1
    91     1    62    1
    92     2    63    1
    93     3    64    1
    94     4    65    1
    95     5     6    1
    96     7     8    2
    97     9    78    1
    98    15    79    1
    99    18    80    1
   100    18    81    1
   101    19    82    1
   102    19    83    1
   103    20    23    1
   104    21    84    1
   105    21    85    1
   106    22    86    1
   107    22    87    1
   108    27    45    1
   109    28    34    1
   110    32    58    1
   111    33    46    2
   112    36    51    1
   113    36    66    1
   114    37    52    1
   115    37    67    1
   116    38    53    1
   117    38    68    1
   118    42    48    1
   119    42    72    1
   120    43    44    2
   121    60    73    1
   122    61    74    1
   123    39    69    1
   124    39    57    1
   125    40    70    1
   126    40    50    1
   127    41    71    1
   128    41    49    1
