@<TRIPOS>MOLECULE
*****
 123 128 0 0 0
SMALL
GASTEIGER

@<TRIPOS>ATOM
     1 C         -0.14169   4.037447   -1.284124 C.3        1 UNL1     0.0009
     2 C         -1.550533   4.912176   -2.113008 C.2        1 UNL1     -0.0787
     3 C         -2.154632   5.473918   -3.30278 C.2        1 UNL1     -0.0649
     4 C         -3.709585   6.1214   -3.473788 C.2        1 UNL1     -0.0542
     5 C         -4.731056   6.460895   -4.394885 C.2        1 UNL1     0.0115
     6 C         -5.059695   6.618789   -5.90498 C.3        1 UNL1     -0.0348
     7 C         -6.225003   6.683146   -3.851087 C.2        1 UNL1     0.2441
     8 O         -6.715421   7.791815   -3.687166 O.2        1 UNL1     -0.2702
     9 N         -7.020405   5.524374   -3.823995 N.am        1 UNL1     -0.2772
     10 C         -6.859496   4.859281   -2.630227 C.2        1 UNL1     0.1049
     11 C         -5.810175   4.061851   -2.545068 C.2        1 UNL1     0.0801
     12 C         -6.845808   5.205459   -0.152868 C.ar        1 UNL1     0.0753
     13 C         -5.595214   4.509405   -0.141357 C.ar        1 UNL1     0.0305
     14 C         -5.103003   3.800869   -1.320661 C.2        1 UNL1     0.0924
     15 N         -4.977752   3.624044   -3.505236 N.pl3        1 UNL1     -0.3170
     16 C         -4.10626   2.641869   -2.916942 C.3        1 UNL1     0.1275
     17 N         -4.028373   3.029808   -1.460521 N.2        1 UNL1     -0.2557
     18 C         -4.838302   1.303982   -2.960256 C.3        1 UNL1     0.0016
     19 C         -5.232722   1.011787   -4.399229 C.3        1 UNL1     0.0026
     20 N         -4.02783   0.976482   -5.216553 N.3        1 UNL1     -0.3018
     21 C         -3.222664   2.199341   -5.190241 C.3        1 UNL1     0.0026
     22 C         -2.83367   2.471324   -3.736073 C.3        1 UNL1     0.0016
     23 C         -4.255801   0.415253   -6.533251 C.3        1 UNL1     0.0012
     24 C         -4.383389   -1.114095   -6.452175 C.3        1 UNL1     -0.0339
     25 C         -3.804399   -1.793857   -7.703874 C.3        1 UNL1     -0.0615
     26 C         -3.724016   -1.625137   -5.182985 C.3        1 UNL1     -0.0615
     27 C         -7.365301   5.7754   1.007051 C.ar        1 UNL1     0.1347
     28 C         -6.746923   5.680584   2.241016 C.ar        1 UNL1     0.0342
     29 C         -5.493329   5.033151   2.218717 C.ar        1 UNL1     0.1435
     30 C         -4.943341   4.488902   1.057457 C.ar        1 UNL1     0.0774
     31 O         -4.818493   4.764573   3.357782 O.3        1 UNL1     -0.4436
     32 C         -3.892159   3.729584   2.995048 C.3        1 UNL1     0.3143
     33 C         -3.711865   3.866594   1.496737 C.2        1 UNL1     0.2504
     34 C         -7.359923   6.044211   3.564687 C.3        1 UNL1     -0.0327
     35 O         -2.633446   4.05396   3.5981 O.2        1 UNL1     -0.4528
     36 C         -0.917106   0.736296   4.272915 C.3        1 UNL1     0.0854
     37 C         -0.549508   -0.418698   3.263765 C.3        1 UNL1     0.0236
     38 C         0.995878   -0.847086   3.260712 C.3        1 UNL1     0.1131
     39 C         2.117066   0.259417   3.116286 C.3        1 UNL1     0.0200
     40 C         1.950427   1.490863   2.003538 C.3        1 UNL1     0.0661
     41 C         1.553605   1.302558   0.365037 C.3        1 UNL1     0.0091
     42 C         0.607613   2.396483   -0.763604 C.3        1 UNL1     0.0661
     43 C         -7.614635   5.223223   -1.422061 C.2        1 UNL1     0.2131
     44 O         -8.815194   5.418539   -1.479044 O.2        1 UNL1     -0.2851
     45 O         -8.565741   6.474698   0.900457 O.3        1 UNL1     -0.5056
     46 O         -2.757526   3.553163   0.820828 O.2        1 UNL1     -0.2836
     47 C         1.056763   5.005578   -1.093302 C.3        1 UNL1     -0.0566
     48 O         1.601373   2.313774   -1.861199 O.3        1 UNL1     -0.3909
     49 C         1.044857   -0.104615   0.144739 C.3        1 UNL1     -0.0577
     50 O         1.223985   2.5703   2.555645 O.3        1 UNL1     -0.3910
     51 O         0.170571   1.36394   4.913581 O.3        1 UNL1     -0.3753
     52 C         -1.390543   -0.331655   1.948458 C.3        1 UNL1     -0.0564
     53 O         1.255212   -2.154844   2.571627 O.3        1 UNL1     -0.4608
     54 C         2.348911   -2.442647   1.797725 C.2        1 UNL1     0.3042
     55 O         2.405141   -2.481818   0.569254 O.2        1 UNL1     -0.2512
     56 C         3.603359   -2.67324   2.591388 C.3        1 UNL1     0.0332
     57 C         2.604764   0.647   4.589414 C.3        1 UNL1     -0.0567
     58 C         -4.598836   2.386409   3.291727 C.3        1 UNL1     0.0210
     59 C         0.315657   1.046595   6.297094 C.3        1 UNL1     0.0372
     60 C         -1.765145   1.820213   3.706244 C.2        1 UNL1     -0.0208
     61 C         -1.664275   3.145267   3.819395 C.2        1 UNL1     0.0882
     62 H         -0.70914   4.053143   -0.345793 H        1 UNL1     0.0365
     63 H         -2.19406   5.119732   -1.255533 H        1 UNL1     0.0576
     64 H         -1.685656   5.374733   -4.284274 H        1 UNL1     0.0615
     65 H         -4.052165   6.252161   -2.443728 H        1 UNL1     0.0622
     66 H         -1.529516   0.245803   5.042601 H        1 UNL1     0.0645
     67 H         -1.024968   -1.315389   3.697864 H        1 UNL1     0.0362
     68 H         1.085363   -1.22022   4.292355 H        1 UNL1     0.0741
     69 H         3.038033   -0.216594   2.807025 H        1 UNL1     0.0359
     70 H         2.995459   1.853152   1.962128 H        1 UNL1     0.0600
     71 H         2.56872   1.237468   -0.07344 H        1 UNL1     0.0348
     72 H         0.927316   3.030652   0.076 H        1 UNL1     0.0602
     73 H         -2.620444   1.39045   3.24688 H        1 UNL1     0.0628
     74 H         -0.795157   3.665248   4.223735 H        1 UNL1     0.1022
     75 H         -4.260889   7.204266   -6.420886 H        1 UNL1     0.0279
     76 H         -5.095589   5.703756   -6.491918 H        1 UNL1     0.0279
     77 H         -5.941828   7.250726   -6.084414 H        1 UNL1     0.0279
     78 H         -6.730474   4.893023   -4.567912 H        1 UNL1     0.1553
     79 H         -5.200097   3.637206   -4.483665 H        1 UNL1     0.1484
     80 H         -4.180714   0.52347   -2.558827 H        1 UNL1     0.0317
     81 H         -5.727683   1.323716   -2.321302 H        1 UNL1     0.0317
     82 H         -5.949897   1.752172   -4.783161 H        1 UNL1     0.0428
     83 H         -5.754807   0.05449   -4.406967 H        1 UNL1     0.0428
     84 H         -2.28419   2.118673   -5.74753 H        1 UNL1     0.0428
     85 H         -3.743561   3.042048   -5.665454 H        1 UNL1     0.0428
     86 H         -2.139973   3.290835   -3.770338 H        1 UNL1     0.0317
     87 H         -2.22848   1.64256   -3.348787 H        1 UNL1     0.0317
     88 H         -5.198048   0.824524   -6.920502 H        1 UNL1     0.0429
     89 H         -3.464742   0.70998   -7.234775 H        1 UNL1     0.0429
     90 H         -5.44323   -1.382146   -6.367924 H        1 UNL1     0.0308
     91 H         -2.829289   -1.374459   -7.969145 H        1 UNL1     0.0233
     92 H         -3.701056   -2.869988   -7.546166 H        1 UNL1     0.0233
     93 H         -4.451516   -1.674133   -8.581223 H        1 UNL1     0.0233
     94 H         -3.463627   -2.683465   -5.292417 H        1 UNL1     0.0233
     95 H         -2.802021   -1.069226   -4.991023 H        1 UNL1     0.0233
     96 H         -4.386147   -1.519719   -4.319019 H        1 UNL1     0.0233
     97 H         -7.379312   5.20195   4.249853 H        1 UNL1     0.0280
     98 H         -6.798076   6.835847   4.077421 H        1 UNL1     0.0280
     99 H         -8.395881   6.38755   3.409753 H        1 UNL1     0.0280
     100 H         -8.591966   7.103082   0.200408 H        1 UNL1     0.2922
     101 H         1.972556   4.432896   -0.948338 H        1 UNL1     0.0236
     102 H         0.898337   5.732085   -0.297015 H        1 UNL1     0.0236
     103 H         1.246084   5.612849   -1.994175 H        1 UNL1     0.0236
     104 H         2.490247   2.317021   -1.455166 H        1 UNL1     0.2098
     105 H         1.454584   -0.598035   -0.733027 H        1 UNL1     0.0234
     106 H         1.119721   -0.757271   1.01443 H        1 UNL1     0.0234
     107 H         -0.0   0.0   0.0 H        1 UNL1     0.0234
     108 H         1.866965   3.155012   3.001129 H        1 UNL1     0.2098
     109 H         -2.469283   -0.422274   2.13772 H        1 UNL1     0.0234
     110 H         -1.194896   0.578904   1.371963 H        1 UNL1     0.0234
     111 H         -1.141235   -1.145064   1.254082 H        1 UNL1     0.0234
     112 H         4.204157   -3.456165   2.11872 H        1 UNL1     0.0342
     113 H         4.181945   -1.75937   2.717579 H        1 UNL1     0.0342
     114 H         3.316568   -3.026409   3.591482 H        1 UNL1     0.0342
     115 H         3.671024   0.911275   4.610301 H        1 UNL1     0.0234
     116 H         2.052213   1.475892   5.036263 H        1 UNL1     0.0234
     117 H         2.58103   -0.199143   5.297524 H        1 UNL1     0.0234
     118 H         -4.14291   1.858183   4.147364 H        1 UNL1     0.0309
     119 H         -5.673234   2.496399   3.46998 H        1 UNL1     0.0309
     120 H         -4.4997   1.668773   2.469975 H        1 UNL1     0.0309
     121 H         0.836602   1.876978   6.772949 H        1 UNL1     0.0524
     122 H         -0.65681   0.930607   6.803939 H        1 UNL1     0.0524
     123 H         0.886064   0.129571   6.414551 H        1 UNL1     0.0524
@<TRIPOS>BOND
     1     1     2    1
     2     1    42    1
     3     2     3    2
     4     3     4    1
     5     4     5    2
     6     5     7    1
     7     6    75    1
     8     6    76    1
     9     6    77    1
    10     7     9   am
    11     9    10    1
    12    10    11    2
    13    10    43    1
    14    11    14    1
    15    11    15    1
    16    12    13   ar
    17    12    27   ar
    18    12    43    1
    19    13    14    1
    20    13    30   ar
    21    14    17    2
    22    15    16    1
    23    16    17    1
    24    16    18    1
    25    16    22    1
    26    18    19    1
    27    19    20    1
    28    20    21    1
    29    21    22    1
    30    23    24    1
    31    23    88    1
    32    23    89    1
    33    24    25    1
    34    24    26    1
    35    24    90    1
    36    25    91    1
    37    25    92    1
    38    25    93    1
    39    26    94    1
    40    26    95    1
    41    26    96    1
    42    27    28   ar
    43    28    29   ar
    44    29    30   ar
    45    29    31    1
    46    30    33    1
    47    31    32    1
    48    32    33    1
    49    32    35    1
    50    34    97    1
    51    34    98    1
    52    34    99    1
    53    35    61    1
    54    36    37    1
    55    36    60    1
    56    37    38    1
    57    38    39    1
    58    39    40    1
    59    40    41    1
    60    41    42    1
    61    45   100    1
    62    47   101    1
    63    47   102    1
    64    47   103    1
    65    48   104    1
    66    49   105    1
    67    49   106    1
    68    49   107    1
    69    50   108    1
    70    51    59    1
    71    52   109    1
    72    52   110    1
    73    52   111    1
    74    53    54    1
    75    54    55    2
    76    54    56    1
    77    56   112    1
    78    56   113    1
    79    56   114    1
    80    57   115    1
    81    57   116    1
    82    57   117    1
    83    58   118    1
    84    58   119    1
    85    58   120    1
    86    59   121    1
    87    59   122    1
    88    59   123    1
    89    60    61    2
    90     1    47    1
    91     1    62    1
    92     2    63    1
    93     3    64    1
    94     4    65    1
    95     5     6    1
    96     7     8    2
    97     9    78    1
    98    15    79    1
    99    18    80    1
   100    18    81    1
   101    19    82    1
   102    19    83    1
   103    20    23    1
   104    21    84    1
   105    21    85    1
   106    22    86    1
   107    22    87    1
   108    27    45    1
   109    28    34    1
   110    32    58    1
   111    33    46    2
   112    36    51    1
   113    36    66    1
   114    37    52    1
   115    37    67    1
   116    38    53    1
   117    38    68    1
   118    42    48    1
   119    42    72    1
   120    43    44    2
   121    60    73    1
   122    61    74    1
   123    39    69    1
   124    39    57    1
   125    40    70    1
   126    40    50    1
   127    41    71    1
   128    41    49    1
