@<TRIPOS>MOLECULE
*****
 123 128 0 0 0
SMALL
GASTEIGER

@<TRIPOS>ATOM
     1 C         5.169692   1.739599   0.49734 C.3        1 UNL1     0.0009
     2 C         6.608879   2.54295   -0.351427 C.2        1 UNL1     -0.0787
     3 C         7.891402   2.442323   -1.015547 C.2        1 UNL1     -0.0649
     4 C         8.772005   3.675713   -1.770295 C.2        1 UNL1     -0.0542
     5 C         9.793717   3.966332   -2.707698 C.2        1 UNL1     0.0115
     6 C         10.921859   3.338684   -3.571801 C.3        1 UNL1     -0.0348
     7 C         9.892473   5.449291   -3.314385 C.2        1 UNL1     0.2441
     8 O         10.717365   6.269533   -2.935858 O.2        1 UNL1     -0.2702
     9 N         9.144075   5.657367   -4.486032 N.am        1 UNL1     -0.2772
     10 C         7.86167   6.046417   -4.173944 C.2        1 UNL1     0.1049
     11 C         7.013778   5.076587   -3.882861 C.2        1 UNL1     0.0801
     12 C         6.564423   7.65569   -2.76514 C.ar        1 UNL1     0.0753
     13 C         5.802785   6.529233   -2.318363 C.ar        1 UNL1     0.0305
     14 C         5.918167   5.223191   -2.963339 C.2        1 UNL1     0.0924
     15 N         7.134205   3.747358   -4.041528 N.pl3        1 UNL1     -0.3170
     16 C         5.862882   3.150536   -3.728804 C.3        1 UNL1     0.1275
     17 N         5.226988   4.107115   -2.749865 N.2        1 UNL1     -0.2557
     18 C         5.011706   3.210881   -4.993541 C.3        1 UNL1     0.0016
     19 C         5.766752   2.525201   -6.121077 C.3        1 UNL1     0.0026
     20 N         6.033938   1.146695   -5.734604 N.3        1 UNL1     -0.3018
     21 C         6.79547   0.985183   -4.494302 C.3        1 UNL1     0.0026
     22 C         6.016581   1.677332   -3.374411 C.3        1 UNL1     0.0016
     23 C         6.478343   0.326131   -6.843578 C.3        1 UNL1     0.0012
     24 C         5.323667   0.078532   -7.827029 C.3        1 UNL1     -0.0339
     25 C         5.352468   1.081423   -8.99212 C.3        1 UNL1     -0.0615
     26 C         5.361097   -1.356345   -8.323523 C.3        1 UNL1     -0.0615
     27 C         6.361376   8.923861   -2.226037 C.ar        1 UNL1     0.1347
     28 C         5.401617   9.195331   -1.267279 C.ar        1 UNL1     0.0342
     29 C         4.697447   8.06224   -0.807482 C.ar        1 UNL1     0.1435
     30 C         4.915209   6.779715   -1.31239 C.ar        1 UNL1     0.0774
     31 O         3.655607   8.177855   0.044697 O.3        1 UNL1     -0.4436
     32 C         2.93189   6.946306   -0.098101 C.3        1 UNL1     0.3143
     33 C         3.944055   5.951269   -0.628794 C.2        1 UNL1     0.2504
     34 C         4.956692   10.562328   -0.827437 C.3        1 UNL1     -0.0327
     35 O         2.568845   6.510531   1.217783 O.2        1 UNL1     -0.4528
     36 C         -0.67718   4.584096   0.817454 C.3        1 UNL1     0.0854
     37 C         -0.983647   3.323874   -0.080009 C.3        1 UNL1     0.0236
     38 C         -1.587439   2.064079   0.707452 C.3        1 UNL1     0.1131
     39 C         -0.86424   1.532116   2.009861 C.3        1 UNL1     0.0200
     40 C         0.796636   1.383593   2.053104 C.3        1 UNL1     0.0661
     41 C         1.756058   0.612789   0.885635 C.3        1 UNL1     0.0091
     42 C         3.464987   0.972154   0.323656 C.3        1 UNL1     0.0661
     43 C         7.515468   7.446039   -3.884881 C.2        1 UNL1     0.2131
     44 O         7.917849   8.343242   -4.60311 O.2        1 UNL1     -0.2851
     45 O         7.176067   9.957407   -2.683747 O.3        1 UNL1     -0.5056
     46 O         3.957718   4.747735   -0.49774 O.2        1 UNL1     -0.2836
     47 C         5.563514   1.309721   1.936121 C.3        1 UNL1     -0.0566
     48 O         3.910909   -0.439739   0.406296 O.3        1 UNL1     -0.3909
     49 C         0.922977   0.381431   -0.355309 C.3        1 UNL1     -0.0577
     50 O         1.398543   2.600458   2.446383 O.3        1 UNL1     -0.3910
     51 O         -0.803317   4.394949   2.208764 O.3        1 UNL1     -0.3753
     52 C         0.061931   3.161271   -1.231216 C.3        1 UNL1     -0.0564
     53 O         -2.190807   1.025985   -0.1929 O.3        1 UNL1     -0.4608
     54 C         -2.415883   -0.28353   0.142424 C.2        1 UNL1     0.3042
     55 O         -1.844954   -1.277645   -0.304358 O.2        1 UNL1     -0.2512
     56 C         -3.446902   -0.459548   1.220724 C.3        1 UNL1     0.0332
     57 C         -1.585608   2.202685   3.270075 C.3        1 UNL1     -0.0567
     58 C         1.858468   7.193093   -1.183638 C.3        1 UNL1     0.0210
     59 C         -1.146226   5.568368   2.94454 C.3        1 UNL1     0.0372
     60 C         0.653229   5.210735   0.588329 C.2        1 UNL1     -0.0208
     61 C         1.565881   5.644516   1.458757 C.2        1 UNL1     0.0882
     62 H         4.69544   2.724647   0.583808 H        1 UNL1     0.0365
     63 H         6.344402   3.597251   -0.246681 H        1 UNL1     0.0576
     64 H         8.347584   1.474601   -1.23582 H        1 UNL1     0.0615
     65 H         8.286148   4.592063   -1.424276 H        1 UNL1     0.0622
     66 H         -1.420104   5.331895   0.506155 H        1 UNL1     0.0645
     67 H         -1.847888   3.634661   -0.692429 H        1 UNL1     0.0362
     68 H         -2.53415   2.50274   1.057934 H        1 UNL1     0.0741
     69 H         -1.197823   0.521661   2.205082 H        1 UNL1     0.0359
     70 H         0.906144   0.72326   2.934596 H        1 UNL1     0.0600
     71 H         1.797278   -0.408357   1.312858 H        1 UNL1     0.0348
     72 H         3.358789   1.46077   1.30309 H        1 UNL1     0.0602
     73 H         0.772745   5.407537   -0.448123 H        1 UNL1     0.0628
     74 H         1.546649   5.434126   2.528619 H        1 UNL1     0.1022
     75 H         10.964161   2.233361   -3.418482 H        1 UNL1     0.0279
     76 H         10.809693   3.421433   -4.650523 H        1 UNL1     0.0279
     77 H         11.927082   3.64165   -3.244023 H        1 UNL1     0.0279
     78 H         9.081146   4.787412   -5.010718 H        1 UNL1     0.1553
     79 H         7.799455   3.318028   -4.658011 H        1 UNL1     0.1484
     80 H         4.049305   2.721725   -4.800468 H        1 UNL1     0.0317
     81 H         4.787298   4.247979   -5.265054 H        1 UNL1     0.0317
     82 H         6.698674   3.054768   -6.368048 H        1 UNL1     0.0428
     83 H         5.142788   2.581268   -7.013588 H        1 UNL1     0.0428
     84 H         6.913532   -0.057914   -4.18475 H        1 UNL1     0.0428
     85 H         7.826351   1.351334   -4.596947 H        1 UNL1     0.0428
     86 H         6.531444   1.426246   -2.465643 H        1 UNL1     0.0317
     87 H         5.036124   1.201491   -3.250407 H        1 UNL1     0.0317
     88 H         7.276024   0.866371   -7.37002 H        1 UNL1     0.0429
     89 H         6.908804   -0.620339   -6.491909 H        1 UNL1     0.0429
     90 H         4.370352   0.18708   -7.296349 H        1 UNL1     0.0308
     91 H         6.301966   1.03468   -9.533758 H        1 UNL1     0.0233
     92 H         4.532688   0.888641   -9.688112 H        1 UNL1     0.0233
     93 H         5.229571   2.117596   -8.654368 H        1 UNL1     0.0233
     94 H         4.665604   -1.484861   -9.159949 H        1 UNL1     0.0233
     95 H         6.365461   -1.602513   -8.679354 H        1 UNL1     0.0233
     96 H         5.084494   -2.059505   -7.532937 H        1 UNL1     0.0233
     97 H         4.162364   10.514151   -0.088552 H        1 UNL1     0.0280
     98 H         5.769898   11.131015   -0.357811 H        1 UNL1     0.0280
     99 H         4.585092   11.127332   -1.697943 H        1 UNL1     0.0280
     100 H         6.710778   10.708521   -3.007719 H        1 UNL1     0.2922
     101 H         4.699306   0.877754   2.44031 H        1 UNL1     0.0236
     102 H         6.015039   2.114388   2.515448 H        1 UNL1     0.0236
     103 H         6.318317   0.50569   1.936129 H        1 UNL1     0.0236
     104 H         4.329151   -0.566278   1.280385 H        1 UNL1     0.2098
     105 H         0.712647   1.280509   -0.929096 H        1 UNL1     0.0234
     106 H         1.291744   -0.407409   -1.010801 H        1 UNL1     0.0234
     107 H         0.0   -0.0   0.0 H        1 UNL1     0.0234
     108 H         1.19963   3.25964   1.753793 H        1 UNL1     0.2098
     109 H         1.086097   3.04604   -0.849746 H        1 UNL1     0.0234
     110 H         -0.171173   2.334431   -1.910731 H        1 UNL1     0.0234
     111 H         0.085507   4.043891   -1.884188 H        1 UNL1     0.0234
     112 H         -3.574439   -1.52322   1.44362 H        1 UNL1     0.0342
     113 H         -3.198263   0.101131   2.120536 H        1 UNL1     0.0342
     114 H         -4.405662   -0.07699   0.844437 H        1 UNL1     0.0342
     115 H         -2.650314   1.936186   3.320758 H        1 UNL1     0.0234
     116 H         -1.135703   1.941556   4.229995 H        1 UNL1     0.0234
     117 H         -1.644023   3.303072   3.209441 H        1 UNL1     0.0234
     118 H         0.957771   7.681717   -0.772545 H        1 UNL1     0.0309
     119 H         2.229923   7.78021   -2.02952 H        1 UNL1     0.0309
     120 H         1.468738   6.261733   -1.608828 H        1 UNL1     0.0309
     121 H         -0.342017   6.290617   2.806843 H        1 UNL1     0.0524
     122 H         -2.076763   6.034063   2.579482 H        1 UNL1     0.0524
     123 H         -1.260587   5.331126   3.998453 H        1 UNL1     0.0524
@<TRIPOS>BOND
     1     1     2    1
     2     1    42    1
     3     2     3    2
     4     3     4    1
     5     4     5    2
     6     5     7    1
     7     6    75    1
     8     6    76    1
     9     6    77    1
    10     7     9   am
    11     9    10    1
    12    10    11    2
    13    10    43    1
    14    11    14    1
    15    11    15    1
    16    12    13   ar
    17    12    27   ar
    18    12    43    1
    19    13    14    1
    20    13    30   ar
    21    14    17    2
    22    15    16    1
    23    16    17    1
    24    16    18    1
    25    16    22    1
    26    18    19    1
    27    19    20    1
    28    20    21    1
    29    21    22    1
    30    23    24    1
    31    23    88    1
    32    23    89    1
    33    24    25    1
    34    24    26    1
    35    24    90    1
    36    25    91    1
    37    25    92    1
    38    25    93    1
    39    26    94    1
    40    26    95    1
    41    26    96    1
    42    27    28   ar
    43    28    29   ar
    44    29    30   ar
    45    29    31    1
    46    30    33    1
    47    31    32    1
    48    32    33    1
    49    32    35    1
    50    34    97    1
    51    34    98    1
    52    34    99    1
    53    35    61    1
    54    36    37    1
    55    36    60    1
    56    37    38    1
    57    38    39    1
    58    39    40    1
    59    40    41    1
    60    41    42    1
    61    45   100    1
    62    47   101    1
    63    47   102    1
    64    47   103    1
    65    48   104    1
    66    49   105    1
    67    49   106    1
    68    49   107    1
    69    50   108    1
    70    51    59    1
    71    52   109    1
    72    52   110    1
    73    52   111    1
    74    53    54    1
    75    54    55    2
    76    54    56    1
    77    56   112    1
    78    56   113    1
    79    56   114    1
    80    57   115    1
    81    57   116    1
    82    57   117    1
    83    58   118    1
    84    58   119    1
    85    58   120    1
    86    59   121    1
    87    59   122    1
    88    59   123    1
    89    60    61    2
    90     1    47    1
    91     1    62    1
    92     2    63    1
    93     3    64    1
    94     4    65    1
    95     5     6    1
    96     7     8    2
    97     9    78    1
    98    15    79    1
    99    18    80    1
   100    18    81    1
   101    19    82    1
   102    19    83    1
   103    20    23    1
   104    21    84    1
   105    21    85    1
   106    22    86    1
   107    22    87    1
   108    27    45    1
   109    28    34    1
   110    32    58    1
   111    33    46    2
   112    36    51    1
   113    36    66    1
   114    37    52    1
   115    37    67    1
   116    38    53    1
   117    38    68    1
   118    42    48    1
   119    42    72    1
   120    43    44    2
   121    60    73    1
   122    61    74    1
   123    39    69    1
   124    39    57    1
   125    40    70    1
   126    40    50    1
   127    41    71    1
   128    41    49    1
