@<TRIPOS>MOLECULE
*****
 123 128 0 0 0
SMALL
GASTEIGER

@<TRIPOS>ATOM
     1 C         5.165772   1.76124   0.460546 C.3        1 UNL1     0.0009
     2 C         6.595229   2.571338   -0.398192 C.2        1 UNL1     -0.0787
     3 C         7.873235   2.476664   -1.071826 C.2        1 UNL1     -0.0649
     4 C         8.742991   3.714349   -1.8321 C.2        1 UNL1     -0.0542
     5 C         9.756516   4.010007   -2.776787 C.2        1 UNL1     0.0115
     6 C         10.880914   3.387805   -3.649665 C.3        1 UNL1     -0.0348
     7 C         9.844485   5.493818   -3.383049 C.2        1 UNL1     0.2441
     8 O         10.668649   6.317288   -3.009984 O.2        1 UNL1     -0.2702
     9 N         9.086587   5.699566   -4.548986 N.am        1 UNL1     -0.2772
     10 C         7.804875   6.08292   -4.227154 C.2        1 UNL1     0.1049
     11 C         6.963287   5.109273   -3.930571 C.2        1 UNL1     0.0801
     12 C         6.51122   7.685616   -2.807591 C.ar        1 UNL1     0.0753
     13 C         5.757697   6.555596   -2.356074 C.ar        1 UNL1     0.0305
     14 C         5.873874   5.250533   -3.002885 C.2        1 UNL1     0.0924
     15 N         7.088194   3.780686   -4.091141 N.pl3        1 UNL1     -0.3170
     16 C         5.821763   3.178224   -3.76951 C.3        1 UNL1     0.1275
     17 N         5.189043   4.131365   -2.785177 N.2        1 UNL1     -0.2557
     18 C         4.961033   3.235872   -5.027891 C.3        1 UNL1     0.0016
     19 C         5.710652   2.554244   -6.161489 C.3        1 UNL1     0.0026
     20 N         5.986543   1.176605   -5.778053 N.3        1 UNL1     -0.3018
     21 C         6.757884   1.017427   -4.543523 C.3        1 UNL1     0.0026
     22 C         5.984338   1.705428   -3.41739 C.3        1 UNL1     0.0016
     23 C         6.426244   0.358758   -6.890902 C.3        1 UNL1     0.0012
     24 C         5.26541   0.106965   -7.866002 C.3        1 UNL1     -0.0339
     25 C         5.331276   1.054208   -9.075321 C.3        1 UNL1     -0.0615
     26 C         5.253662   -1.349446   -8.296709 C.3        1 UNL1     -0.0615
     27 C         6.30676   8.952513   -2.266033 C.ar        1 UNL1     0.1347
     28 C         5.352953   9.219188   -1.300017 C.ar        1 UNL1     0.0342
     29 C         4.657021   8.082769   -0.835911 C.ar        1 UNL1     0.1435
     30 C         4.876507   6.801556   -1.343393 C.ar        1 UNL1     0.0774
     31 O         3.621012   8.193319   0.024015 O.3        1 UNL1     -0.4436
     32 C         2.901507   6.958803   -0.114388 C.3        1 UNL1     0.3143
     33 C         3.913955   5.968477   -0.653291 C.2        1 UNL1     0.2504
     34 C         4.905473   10.583953   -0.85586 C.3        1 UNL1     -0.0327
     35 O         2.550035   6.520517   1.203802 O.2        1 UNL1     -0.4528
     36 C         -0.690629   4.580568   0.825938 C.3        1 UNL1     0.0854
     37 C         -0.998342   3.319711   -0.070207 C.3        1 UNL1     0.0236
     38 C         -1.590945   2.056777   0.720718 C.3        1 UNL1     0.1131
     39 C         -0.855903   1.526943   2.017352 C.3        1 UNL1     0.0200
     40 C         0.805864   1.385464   2.048235 C.3        1 UNL1     0.0661
     41 C         1.759919   0.619613   0.873134 C.3        1 UNL1     0.0091
     42 C         3.463112   0.986667   0.298846 C.3        1 UNL1     0.0661
     43 C         7.454863   7.480842   -3.934474 C.2        1 UNL1     0.2131
     44 O         7.848115   8.380279   -4.654962 O.2        1 UNL1     -0.2851
     45 O         7.113649   9.989857   -2.728945 O.3        1 UNL1     -0.5056
     46 O         3.933705   4.764917   -0.523265 O.2        1 UNL1     -0.2836
     47 C         5.572021   1.331985   1.896055 C.3        1 UNL1     -0.0566
     48 O         3.915635   -0.423373   0.377114 O.3        1 UNL1     -0.3909
     49 C         0.9187   0.38562   -0.361812 C.3        1 UNL1     -0.0577
     50 O         1.405472   2.604593   2.437999 O.3        1 UNL1     -0.3910
     51 O         -0.805695   4.389862   2.217995 O.3        1 UNL1     -0.3753
     52 C         0.039399   3.162411   -1.229215 C.3        1 UNL1     -0.0564
     53 O         -2.196515   1.016784   -0.175956 O.3        1 UNL1     -0.4608
     54 C         -2.425623   -0.290717   0.164456 C.2        1 UNL1     0.3042
     55 O         -1.85575   -1.288113   -0.276321 O.2        1 UNL1     -0.2512
     56 C         -3.460137   -0.459593   1.240548 C.3        1 UNL1     0.0332
     57 C         -1.570803   2.193505   3.283364 C.3        1 UNL1     -0.0567
     58 C         1.819068   7.201813   -1.191792 C.3        1 UNL1     0.0210
     59 C         -1.117229   5.567709   2.960618 C.3        1 UNL1     0.0372
     60 C         0.635376   5.213036   0.587492 C.2        1 UNL1     -0.0208
     61 C         1.552569   5.650061   1.4515 C.2        1 UNL1     0.0882
     62 H         4.687984   2.744194   0.551264 H        1 UNL1     0.0365
     63 H         6.327048   3.624425   -0.290691 H        1 UNL1     0.0576
     64 H         8.331893   1.511056   -1.296198 H        1 UNL1     0.0615
     65 H         8.255806   4.628366   -1.481806 H        1 UNL1     0.0622
     66 H         -1.439003   5.325424   0.520698 H        1 UNL1     0.0645
     67 H         -1.868391   3.627265   -0.676 H        1 UNL1     0.0362
     68 H         -2.536903   2.491143   1.078507 H        1 UNL1     0.0741
     69 H         -1.183735   0.514933   2.214252 H        1 UNL1     0.0359
     70 H         0.924679   0.724955   2.92839 H        1 UNL1     0.0600
     71 H         1.808633   -0.401662   1.299258 H        1 UNL1     0.0348
     72 H         3.362063   1.474106   1.279412 H        1 UNL1     0.0602
     73 H         0.746406   5.411108   -0.449662 H        1 UNL1     0.0628
     74 H         1.542124   5.438804   2.521313 H        1 UNL1     0.1022
     75 H         10.910311   2.279135   -3.519203 H        1 UNL1     0.0279
     76 H         10.773829   3.494169   -4.726832 H        1 UNL1     0.0279
     77 H         11.888181   3.672612   -3.312026 H        1 UNL1     0.0279
     78 H         9.023491   4.829737   -5.073861 H        1 UNL1     0.1553
     79 H         7.7507   3.354647   -4.712841 H        1 UNL1     0.1484
     80 H         4.002172   2.74248   -4.828103 H        1 UNL1     0.0317
     81 H         4.730219   4.272205   -5.296947 H        1 UNL1     0.0317
     82 H         6.638465   3.087958   -6.414917 H        1 UNL1     0.0428
     83 H         5.07989   2.608309   -7.049332 H        1 UNL1     0.0428
     84 H         6.882662   -0.025385   -4.235649 H        1 UNL1     0.0428
     85 H         7.786412   1.388041   -4.653484 H        1 UNL1     0.0428
     86 H         6.506954   1.45587   -2.512635 H        1 UNL1     0.0317
     87 H         5.006856   1.225324   -3.286526 H        1 UNL1     0.0317
     88 H         7.217715   0.902777   -7.422796 H        1 UNL1     0.0429
     89 H         6.86331   -0.586128   -6.543142 H        1 UNL1     0.0429
     90 H         4.315506   0.272617   -7.344031 H        1 UNL1     0.0308
     91 H         6.283294   0.956562   -9.605632 H        1 UNL1     0.0233
     92 H         4.511887   0.852354   -9.769198 H        1 UNL1     0.0233
     93 H         5.234718   2.107767   -8.786316 H        1 UNL1     0.0233
     94 H         4.556782   -1.491331   -9.129813 H        1 UNL1     0.0233
     95 H         6.24984   -1.646749   -8.636124 H        1 UNL1     0.0233
     96 H         4.949783   -2.00573   -7.476393 H        1 UNL1     0.0233
     97 H         4.110493   10.531972   -0.117933 H        1 UNL1     0.0280
     98 H         5.717331   11.15226   -0.383452 H        1 UNL1     0.0280
     99 H         4.533853   11.151409   -1.72476 H        1 UNL1     0.0280
     100 H         6.642801   10.739482   -3.0483 H        1 UNL1     0.2922
     101 H         4.710256   0.907377   2.41057 H        1 UNL1     0.0236
     102 H         6.035457   2.134791   2.468516 H        1 UNL1     0.0236
     103 H         6.32106   0.522606   1.889909 H        1 UNL1     0.0236
     104 H         4.335485   -0.550362   1.250367 H        1 UNL1     0.2098
     105 H         0.700321   1.284216   -0.933343 H        1 UNL1     0.0234
     106 H         1.285975   -0.401159   -1.020609 H        1 UNL1     0.0234
     107 H         0.0   -0.0   0.0 H        1 UNL1     0.0234
     108 H         1.216024   3.258082   1.737407 H        1 UNL1     0.2098
     109 H         1.068247   3.063658   -0.85581 H        1 UNL1     0.0234
     110 H         -0.188464   2.327485   -1.900572 H        1 UNL1     0.0234
     111 H         0.045583   4.040356   -1.88885 H        1 UNL1     0.0234
     112 H         -3.579401   -1.520877   1.478876 H        1 UNL1     0.0342
     113 H         -3.220669   0.116731   2.132932 H        1 UNL1     0.0342
     114 H         -4.420426   -0.091221   0.85414 H        1 UNL1     0.0342
     115 H         -2.642157   1.952748   3.321103 H        1 UNL1     0.0234
     116 H         -1.13541   1.904812   4.242081 H        1 UNL1     0.0234
     117 H         -1.601472   3.295884   3.241406 H        1 UNL1     0.0234
     118 H         0.918739   7.684882   -0.773393 H        1 UNL1     0.0309
     119 H         2.181347   7.792426   -2.039219 H        1 UNL1     0.0309
     120 H         1.431277   6.269154   -1.615906 H        1 UNL1     0.0309
     121 H         -0.281556   6.258129   2.84959 H        1 UNL1     0.0524
     122 H         -2.019732   6.075117   2.581061 H        1 UNL1     0.0524
     123 H         -1.2647   5.323175   4.008735 H        1 UNL1     0.0524
@<TRIPOS>BOND
     1     1     2    1
     2     1    42    1
     3     2     3    2
     4     3     4    1
     5     4     5    2
     6     5     7    1
     7     6    75    1
     8     6    76    1
     9     6    77    1
    10     7     9   am
    11     9    10    1
    12    10    11    2
    13    10    43    1
    14    11    14    1
    15    11    15    1
    16    12    13   ar
    17    12    27   ar
    18    12    43    1
    19    13    14    1
    20    13    30   ar
    21    14    17    2
    22    15    16    1
    23    16    17    1
    24    16    18    1
    25    16    22    1
    26    18    19    1
    27    19    20    1
    28    20    21    1
    29    21    22    1
    30    23    24    1
    31    23    88    1
    32    23    89    1
    33    24    25    1
    34    24    26    1
    35    24    90    1
    36    25    91    1
    37    25    92    1
    38    25    93    1
    39    26    94    1
    40    26    95    1
    41    26    96    1
    42    27    28   ar
    43    28    29   ar
    44    29    30   ar
    45    29    31    1
    46    30    33    1
    47    31    32    1
    48    32    33    1
    49    32    35    1
    50    34    97    1
    51    34    98    1
    52    34    99    1
    53    35    61    1
    54    36    37    1
    55    36    60    1
    56    37    38    1
    57    38    39    1
    58    39    40    1
    59    40    41    1
    60    41    42    1
    61    45   100    1
    62    47   101    1
    63    47   102    1
    64    47   103    1
    65    48   104    1
    66    49   105    1
    67    49   106    1
    68    49   107    1
    69    50   108    1
    70    51    59    1
    71    52   109    1
    72    52   110    1
    73    52   111    1
    74    53    54    1
    75    54    55    2
    76    54    56    1
    77    56   112    1
    78    56   113    1
    79    56   114    1
    80    57   115    1
    81    57   116    1
    82    57   117    1
    83    58   118    1
    84    58   119    1
    85    58   120    1
    86    59   121    1
    87    59   122    1
    88    59   123    1
    89    60    61    2
    90     1    47    1
    91     1    62    1
    92     2    63    1
    93     3    64    1
    94     4    65    1
    95     5     6    1
    96     7     8    2
    97     9    78    1
    98    15    79    1
    99    18    80    1
   100    18    81    1
   101    19    82    1
   102    19    83    1
   103    20    23    1
   104    21    84    1
   105    21    85    1
   106    22    86    1
   107    22    87    1
   108    27    45    1
   109    28    34    1
   110    32    58    1
   111    33    46    2
   112    36    51    1
   113    36    66    1
   114    37    52    1
   115    37    67    1
   116    38    53    1
   117    38    68    1
   118    42    48    1
   119    42    72    1
   120    43    44    2
   121    60    73    1
   122    61    74    1
   123    39    69    1
   124    39    57    1
   125    40    70    1
   126    40    50    1
   127    41    71    1
   128    41    49    1
