@<TRIPOS>MOLECULE
*****
 123 128 0 0 0
SMALL
GASTEIGER

@<TRIPOS>ATOM
     1 C         5.313233   1.142587   0.508031 C.3        1 UNL1     0.0009
     2 C         6.879398   1.612399   -0.36572 C.2        1 UNL1     -0.0787
     3 C         8.142474   1.239702   -0.967204 C.2        1 UNL1     -0.0649
     4 C         9.224321   2.22958   -1.813433 C.2        1 UNL1     -0.0542
     5 C         10.298191   2.251981   -2.737219 C.2        1 UNL1     0.0115
     6 C         11.328588   1.364374   -3.488057 C.3        1 UNL1     -0.0348
     7 C         10.645395   3.625744   -3.491682 C.2        1 UNL1     0.2441
     8 O         11.583118   4.34271   -3.170497 O.2        1 UNL1     -0.2702
     9 N         9.963896   3.819414   -4.705849 N.am        1 UNL1     -0.2772
     10 C         8.754258   4.436715   -4.484402 C.2        1 UNL1     0.1049
     11 C         7.756299   3.649718   -4.125329 C.2        1 UNL1     0.0801
     12 C         7.703086   6.3739   -3.301319 C.ar        1 UNL1     0.0753
     13 C         6.762013   5.436644   -2.767894 C.ar        1 UNL1     0.0305
     14 C         6.679864   4.066114   -3.267844 C.2        1 UNL1     0.0924
     15 N         7.665548   2.308787   -4.139368 N.pl3        1 UNL1     -0.3170
     16 C         6.30899   1.956752   -3.813676 C.3        1 UNL1     0.1275
     17 N         5.814723   3.102487   -2.964728 N.2        1 UNL1     -0.2557
     18 C         5.504297   2.011379   -5.108738 C.3        1 UNL1     0.0016
     19 C         6.162543   1.096593   -6.129262 C.3        1 UNL1     0.0026
     20 N         6.197676   -0.256164   -5.59089 N.3        1 UNL1     -0.3018
     21 C         6.898199   -0.398688   -4.312875 C.3        1 UNL1     0.0026
     22 C         6.217614   0.525356   -3.301519 C.3        1 UNL1     0.0016
     23 C         6.527381   -1.252547   -6.59047 C.3        1 UNL1     0.0012
     24 C         5.368155   -1.421787   -7.585111 C.3        1 UNL1     -0.0339
     25 C         5.580789   -0.569275   -8.846882 C.3        1 UNL1     -0.0615
     26 C         5.185434   -2.890308   -7.926929 C.3        1 UNL1     -0.0615
     27 C         7.694803   7.70945   -2.905901 C.ar        1 UNL1     0.1347
     28 C         6.771636   8.231368   -2.017411 C.ar        1 UNL1     0.0342
     29 C         5.885951   7.280001   -1.468204 C.ar        1 UNL1     0.1435
     30 C         5.905763   5.93179   -1.827584 C.ar        1 UNL1     0.0774
     31 O         4.858988   7.650178   -0.672389 O.3        1 UNL1     -0.4436
     32 C         3.950476   6.53938   -0.712466 C.3        1 UNL1     0.3143
     33 C         4.80083   5.345816   -1.097843 C.2        1 UNL1     0.2504
     34 C         6.542484   9.691043   -1.740035 C.3        1 UNL1     -0.0327
     35 O         3.495719   6.312466   0.627294 O.2        1 UNL1     -0.4528
     36 C         -0.008066   4.887446   0.309646 C.3        1 UNL1     0.0854
     37 C         -0.494075   3.600519   -0.461806 C.3        1 UNL1     0.0236
     38 C         -1.307632   2.544842   0.430055 C.3        1 UNL1     0.1131
     39 C         -0.705511   2.051514   1.807134 C.3        1 UNL1     0.0200
     40 C         0.908935   1.649718   1.927798 C.3        1 UNL1     0.0661
     41 C         1.756059   0.61493   0.884148 C.3        1 UNL1     0.0091
     42 C         3.511526   0.637952   0.351974 C.3        1 UNL1     0.0661
     43 C         8.630818   5.896435   -4.356591 C.2        1 UNL1     0.2131
     44 O         9.186147   6.635401   -5.149229 O.2        1 UNL1     -0.2851
     45 O         8.67358   8.545987   -3.438481 O.3        1 UNL1     -0.5056
     46 O         4.618961   4.176686   -0.841108 O.2        1 UNL1     -0.2836
     47 C         5.603871   0.816071   1.997628 C.3        1 UNL1     -0.0566
     48 O         3.723873   -0.808841   0.598578 O.3        1 UNL1     -0.3909
     49 C         0.922037   0.383002   -0.356058 C.3        1 UNL1     -0.0577
     50 O         1.6898   2.792603   2.213784 O.3        1 UNL1     -0.3910
     51 O         -0.191065   4.873656   1.707413 O.3        1 UNL1     -0.3753
     52 C         0.535123   3.150953   -1.549736 C.3        1 UNL1     -0.0564
     53 O         -2.051027   1.522237   -0.378629 O.3        1 UNL1     -0.4608
     54 C         -2.501129   0.314465   0.0868 C.2        1 UNL1     0.3042
     55 O         -2.092268   -0.804226   -0.221748 O.2        1 UNL1     -0.2512
     56 C         -3.57663   0.434432   1.12873 C.3        1 UNL1     0.0332
     57 C         -1.335632   2.960682   2.962355 C.3        1 UNL1     -0.0567
     58 C         2.952664   6.831484   -1.857271 C.3        1 UNL1     0.0210
     59 C         -0.356537   6.159656   2.30297 C.3        1 UNL1     0.0372
     60 C         1.409881   5.26861   0.066125 C.2        1 UNL1     -0.0208
     61 C         2.362358   5.646236   0.9199 C.2        1 UNL1     0.0882
     62 H         5.001156   2.193348   0.473108 H        1 UNL1     0.0365
     63 H         6.785063   2.700199   -0.381879 H        1 UNL1     0.0576
     64 H         8.442207   0.194159   -1.067747 H        1 UNL1     0.0615
     65 H         8.884526   3.243101   -1.583657 H        1 UNL1     0.0622
     66 H         -0.615207   5.704044   -0.105797 H        1 UNL1     0.0645
     67 H         -1.284801   3.974311   -1.135298 H        1 UNL1     0.0362
     68 H         -2.178812   3.162333   0.697026 H        1 UNL1     0.0741
     69 H         -1.200463   1.133424   2.094434 H        1 UNL1     0.0359
     70 H         0.893398   1.080729   2.877046 H        1 UNL1     0.0600
     71 H         1.624578   -0.347137   1.417154 H        1 UNL1     0.0348
     72 H         3.465076   1.241264   1.270218 H        1 UNL1     0.0602
     73 H         1.580371   5.329736   -0.980032 H        1 UNL1     0.0628
     74 H         2.287985   5.55968   2.004434 H        1 UNL1     0.1022
     75 H         11.190255   0.289578   -3.218405 H        1 UNL1     0.0279
     76 H         11.253029   1.345306   -4.572952 H        1 UNL1     0.0279
     77 H         12.36249   1.539759   -3.156413 H        1 UNL1     0.0279
     78 H         9.773153   2.918058   -5.138575 H        1 UNL1     0.1553
     79 H         8.265848   1.715569   -4.682199 H        1 UNL1     0.1484
     80 H         4.472277   1.703446   -4.901668 H        1 UNL1     0.0317
     81 H         5.454387   3.034881   -5.495525 H        1 UNL1     0.0317
     82 H         7.172046   1.443085   -6.395267 H        1 UNL1     0.0428
     83 H         5.573845   1.152034   -7.045456 H        1 UNL1     0.0428
     84 H         6.841426   -1.407225   -3.891637 H        1 UNL1     0.0428
     85 H         7.976272   -0.212355   -4.414641 H        1 UNL1     0.0428
     86 H         6.667087   0.297401   -2.352837 H        1 UNL1     0.0317
     87 H         5.171309   0.225776   -3.165159 H        1 UNL1     0.0317
     88 H         7.411783   -0.905049   -7.140354 H        1 UNL1     0.0429
     89 H         6.793527   -2.210682   -6.125802 H        1 UNL1     0.0429
     90 H         4.433948   -1.107582   -7.104751 H        1 UNL1     0.0308
     91 H         6.522828   -0.821255   -9.343036 H        1 UNL1     0.0233
     92 H         4.756554   -0.708242   -9.550398 H        1 UNL1     0.0233
     93 H         5.615467   0.504158   -8.624678 H        1 UNL1     0.0233
     94 H         4.495454   -2.998682   -8.770741 H        1 UNL1     0.0233
     95 H         6.14444   -3.328496   -8.217209 H        1 UNL1     0.0233
     96 H         4.783835   -3.450652   -7.077988 H        1 UNL1     0.0233
     97 H         5.735861   9.849213   -1.030406 H        1 UNL1     0.0280
     98 H         7.42655   10.17289   -1.302421 H        1 UNL1     0.0280
     99 H         6.283879   10.208809   -2.678191 H        1 UNL1     0.0280
     100 H         8.341258   9.321191   -3.855906 H        1 UNL1     0.2922
     101 H         4.671601   0.582859   2.511574 H        1 UNL1     0.0236
     102 H         6.166555   1.598311   2.506028 H        1 UNL1     0.0236
     103 H         6.220049   -0.091608   2.110039 H        1 UNL1     0.0236
     104 H         4.098636   -0.903171   1.496144 H        1 UNL1     0.2098
     105 H         0.70977   1.282076   -0.929137 H        1 UNL1     0.0234
     106 H         1.291301   -0.404931   -1.012361 H        1 UNL1     0.0234
     107 H         0.0   -0.0   0.0 H        1 UNL1     0.0234
     108 H         1.615928   3.39358   1.447535 H        1 UNL1     0.2098
     109 H         1.519673   2.918759   -1.120249 H        1 UNL1     0.0234
     110 H         0.18648   2.301709   -2.14721 H        1 UNL1     0.0234
     111 H         0.712953   3.942207   -2.290168 H        1 UNL1     0.0234
     112 H         -3.884173   -0.561243   1.462489 H        1 UNL1     0.0342
     113 H         -3.263948   1.049611   1.971124 H        1 UNL1     0.0342
     114 H         -4.448239   0.919285   0.667882 H        1 UNL1     0.0342
     115 H         -2.431908   2.890916   2.984735 H        1 UNL1     0.0234
     116 H         -0.970938   2.722367   3.963481 H        1 UNL1     0.0234
     117 H         -1.194293   4.042637   2.797013 H        1 UNL1     0.0234
     118 H         2.133665   7.497416   -1.533572 H        1 UNL1     0.0309
     119 H         3.430416   7.256994   -2.745469 H        1 UNL1     0.0309
     120 H         2.427554   5.932036   -2.196916 H        1 UNL1     0.0309
     121 H         0.556788   6.726162   2.12334 H        1 UNL1     0.0524
     122 H         -1.190948   6.724166   1.854502 H        1 UNL1     0.0524
     123 H         -0.531848   6.059778   3.37039 H        1 UNL1     0.0524
@<TRIPOS>BOND
     1     1     2    1
     2     1    42    1
     3     2     3    2
     4     3     4    1
     5     4     5    2
     6     5     7    1
     7     6    75    1
     8     6    76    1
     9     6    77    1
    10     7     9   am
    11     9    10    1
    12    10    11    2
    13    10    43    1
    14    11    14    1
    15    11    15    1
    16    12    13   ar
    17    12    27   ar
    18    12    43    1
    19    13    14    1
    20    13    30   ar
    21    14    17    2
    22    15    16    1
    23    16    17    1
    24    16    18    1
    25    16    22    1
    26    18    19    1
    27    19    20    1
    28    20    21    1
    29    21    22    1
    30    23    24    1
    31    23    88    1
    32    23    89    1
    33    24    25    1
    34    24    26    1
    35    24    90    1
    36    25    91    1
    37    25    92    1
    38    25    93    1
    39    26    94    1
    40    26    95    1
    41    26    96    1
    42    27    28   ar
    43    28    29   ar
    44    29    30   ar
    45    29    31    1
    46    30    33    1
    47    31    32    1
    48    32    33    1
    49    32    35    1
    50    34    97    1
    51    34    98    1
    52    34    99    1
    53    35    61    1
    54    36    37    1
    55    36    60    1
    56    37    38    1
    57    38    39    1
    58    39    40    1
    59    40    41    1
    60    41    42    1
    61    45   100    1
    62    47   101    1
    63    47   102    1
    64    47   103    1
    65    48   104    1
    66    49   105    1
    67    49   106    1
    68    49   107    1
    69    50   108    1
    70    51    59    1
    71    52   109    1
    72    52   110    1
    73    52   111    1
    74    53    54    1
    75    54    55    2
    76    54    56    1
    77    56   112    1
    78    56   113    1
    79    56   114    1
    80    57   115    1
    81    57   116    1
    82    57   117    1
    83    58   118    1
    84    58   119    1
    85    58   120    1
    86    59   121    1
    87    59   122    1
    88    59   123    1
    89    60    61    2
    90     1    47    1
    91     1    62    1
    92     2    63    1
    93     3    64    1
    94     4    65    1
    95     5     6    1
    96     7     8    2
    97     9    78    1
    98    15    79    1
    99    18    80    1
   100    18    81    1
   101    19    82    1
   102    19    83    1
   103    20    23    1
   104    21    84    1
   105    21    85    1
   106    22    86    1
   107    22    87    1
   108    27    45    1
   109    28    34    1
   110    32    58    1
   111    33    46    2
   112    36    51    1
   113    36    66    1
   114    37    52    1
   115    37    67    1
   116    38    53    1
   117    38    68    1
   118    42    48    1
   119    42    72    1
   120    43    44    2
   121    60    73    1
   122    61    74    1
   123    39    69    1
   124    39    57    1
   125    40    70    1
   126    40    50    1
   127    41    71    1
   128    41    49    1
