@<TRIPOS>MOLECULE
*****
 123 128 0 0 0
SMALL
GASTEIGER

@<TRIPOS>ATOM
     1 C         1.761489   2.972947   4.249472 C.3        1 UNL1     0.0009
     2 C         2.304286   4.646474   4.834038 C.2        1 UNL1     -0.0787
     3 C         3.359771   5.570845   5.191159 C.2        1 UNL1     -0.0649
     4 C         3.216384   7.209458   5.59209 C.2        1 UNL1     -0.0542
     5 C         3.903857   8.443845   5.695761 C.2        1 UNL1     0.0115
     6 C         5.308664   9.106304   5.664352 C.3        1 UNL1     -0.0348
     7 C         3.05353   9.804245   5.752711 C.2        1 UNL1     0.2441
     8 O         2.850054   10.418818   6.790701 O.2        1 UNL1     -0.2702
     9 N         2.780304   10.380903   4.500128 N.am        1 UNL1     -0.2772
     10 C         1.615562   9.866537   3.978469 C.2        1 UNL1     0.1049
     11 C         1.720347   8.709783   3.34985 C.2        1 UNL1     0.0801
     12 C         -0.770805   9.382734   4.551637 C.ar        1 UNL1     0.0753
     13 C         -0.543291   8.063689   4.04472 C.ar        1 UNL1     0.0305
     14 C         0.672098   7.726567   3.307 C.2        1 UNL1     0.0924
     15 N         2.814806   8.041241   2.947682 N.pl3        1 UNL1     -0.3170
     16 C         2.379359   6.91976   2.15843 C.3        1 UNL1     0.1275
     17 N         1.003015   6.597361   2.68707 N.2        1 UNL1     -0.2557
     18 C         2.178181   7.421751   0.731813 C.3        1 UNL1     0.0016
     19 C         3.472359   8.060881   0.254106 C.3        1 UNL1     0.0026
     20 N         4.535145   7.066988   0.31485 N.3        1 UNL1     -0.3018
     21 C         4.76241   6.479787   1.636937 C.3        1 UNL1     0.0026
     22 C         3.451036   5.839446   2.095366 C.3        1 UNL1     0.0016
     23 C         5.731677   7.476853   -0.392939 C.3        1 UNL1     0.0012
     24 C         5.487912   7.47286   -1.910279 C.3        1 UNL1     -0.0339
     25 C         5.228079   8.892008   -2.441845 C.3        1 UNL1     -0.0615
     26 C         6.655661   6.81384   -2.623606 C.3        1 UNL1     -0.0615
     27 C         -1.98167   9.728207   5.147096 C.ar        1 UNL1     0.1347
     28 C         -3.049238   8.855032   5.256247 C.ar        1 UNL1     0.0342
     29 C         -2.785277   7.54801   4.794531 C.ar        1 UNL1     0.1435
     30 C         -1.564753   7.177509   4.228605 C.ar        1 UNL1     0.0774
     31 O         -3.758196   6.612872   4.731667 O.3        1 UNL1     -0.4436
     32 C         -3.259336   5.631923   3.809847 C.3        1 UNL1     0.3143
     33 C         -1.753277   5.797861   3.831368 C.2        1 UNL1     0.2504
     34 C         -4.452584   9.223064   5.650294 C.3        1 UNL1     -0.0327
     35 O         -3.544895   4.341984   4.364614 O.2        1 UNL1     -0.4528
     36 C         -4.013946   2.015725   1.402082 C.3        1 UNL1     0.0854
     37 C         -3.018482   1.69156   0.222467 C.3        1 UNL1     0.0236
     38 C         -2.694907   0.133993   0.019917 C.3        1 UNL1     0.1131
     39 C         -2.237693   -0.7402   1.256449 C.3        1 UNL1     0.0200
     40 C         -1.119438   -0.147331   2.342935 C.3        1 UNL1     0.0661
     41 C         0.374468   0.552998   1.948734 C.3        1 UNL1     0.0091
     42 C         1.325515   1.87877   2.787329 C.3        1 UNL1     0.0661
     43 C         0.292772   10.396176   4.341875 C.2        1 UNL1     0.2131
     44 O         0.090979   11.596904   4.358232 O.2        1 UNL1     -0.2851
     45 O         -2.105265   11.019591   5.655516 O.3        1 UNL1     -0.5056
     46 O         -0.900667   4.971251   3.595515 O.2        1 UNL1     -0.2836
     47 C         1.901661   1.931084   5.391774 C.3        1 UNL1     -0.0566
     48 O         2.610863   1.140372   2.745288 O.3        1 UNL1     -0.3909
     49 C         0.391347   0.866224   0.469174 C.3        1 UNL1     -0.0577
     50 O         -1.755125   0.607779   3.354585 O.3        1 UNL1     -0.3910
     51 O         -4.356394   0.930997   2.234863 O.3        1 UNL1     -0.3753
     52 C         -1.922101   2.795439   0.066419 C.3        1 UNL1     -0.0564
     53 O         -2.044109   -0.178031   -1.295921 O.3        1 UNL1     -0.4608
     54 C         -1.30819   -1.300424   -1.572662 C.2        1 UNL1     0.3042
     55 O         -0.098052   -1.36653   -1.784876 O.2        1 UNL1     -0.2512
     56 C         -2.112751   -2.568766   -1.546101 C.3        1 UNL1     0.0332
     57 C         -3.53855   -1.461326   1.844602 C.3        1 UNL1     -0.0567
     58 C         -3.785894   6.036467   2.413205 C.3        1 UNL1     0.0210
     59 C         -5.627554   1.043332   2.873139 C.3        1 UNL1     0.0372
     60 C         -3.588245   3.126204   2.296943 C.2        1 UNL1     -0.0208
     61 C         -3.597092   3.215904   3.627589 C.2        1 UNL1     0.0882
     62 H         0.722553   3.323439   4.271341 H        1 UNL1     0.0365
     63 H         1.338359   5.118022   5.026644 H        1 UNL1     0.0576
     64 H         4.413693   5.311166   5.068994 H        1 UNL1     0.0615
     65 H         2.145394   7.341991   5.767868 H        1 UNL1     0.0622
     66 H         -4.928932   2.364761   0.903063 H        1 UNL1     0.0645
     67 H         -3.600451   1.915097   -0.688523 H        1 UNL1     0.0362
     68 H         -3.700597   -0.230619   -0.239249 H        1 UNL1     0.0741
     69 H         -1.758879   -1.638324   0.889682 H        1 UNL1     0.0359
     70 H         -0.82366   -1.088447   2.844806 H        1 UNL1     0.0600
     71 H         1.024451   -0.343056   1.988308 H        1 UNL1     0.0348
     72 H         0.61797   1.493318   3.535741 H        1 UNL1     0.0602
     73 H         -3.358392   3.979913   1.709067 H        1 UNL1     0.0628
     74 H         -3.764969   2.374913   4.301227 H        1 UNL1     0.1022
     75 H         6.097805   8.342551   5.461936 H        1 UNL1     0.0279
     76 H         5.482874   9.837244   4.877937 H        1 UNL1     0.0279
     77 H         5.621798   9.486166   6.647893 H        1 UNL1     0.0279
     78 H         3.531436   10.158707   3.850123 H        1 UNL1     0.1553
     79 H         3.717617   8.465348   2.838148 H        1 UNL1     0.1484
     80 H         1.88859   6.57827   0.0935 H        1 UNL1     0.0317
     81 H         1.358634   8.146812   0.684051 H        1 UNL1     0.0317
     82 H         3.729205   8.951712   0.846021 H        1 UNL1     0.0428
     83 H         3.306172   8.413486   -0.764276 H        1 UNL1     0.0428
     84 H         5.509888   5.68036   1.639221 H        1 UNL1     0.0428
     85 H         5.158076   7.217034   2.349139 H        1 UNL1     0.0428
     86 H         3.688332   5.308355   2.998484 H        1 UNL1     0.0317
     87 H         3.160606   5.041804   1.400733 H        1 UNL1     0.0317
     88 H         5.97915   8.500085   -0.081416 H        1 UNL1     0.0429
     89 H         6.58833   6.843891   -0.127836 H        1 UNL1     0.0429
     90 H         4.612255   6.851262   -2.131758 H        1 UNL1     0.0308
     91 H         6.059036   9.563485   -2.205773 H        1 UNL1     0.0233
     92 H         5.074997   8.877352   -3.523492 H        1 UNL1     0.0233
     93 H         4.324558   9.340359   -2.011186 H        1 UNL1     0.0233
     94 H         6.589843   6.994055   -3.702043 H        1 UNL1     0.0233
     95 H         7.598581   7.238415   -2.267796 H        1 UNL1     0.0233
     96 H         6.668661   5.733558   -2.453929 H        1 UNL1     0.0233
     97 H         -5.122292   8.368869   5.61753 H        1 UNL1     0.0280
     98 H         -4.506644   9.608124   6.676969 H        1 UNL1     0.0280
     99 H         -4.83953   9.992147   4.961905 H        1 UNL1     0.0280
     100 H         -2.855017   11.493869   5.341581 H        1 UNL1     0.2922
     101 H         1.528807   0.963976   5.055116 H        1 UNL1     0.0236
     102 H         1.432135   2.249145   6.322024 H        1 UNL1     0.0236
     103 H         2.956059   1.747383   5.657654 H        1 UNL1     0.0236
     104 H         2.704628   0.662977   3.592798 H        1 UNL1     0.2098
     105 H         -0.230707   1.710137   0.181647 H        1 UNL1     0.0234
     106 H         1.386574   0.965616   0.036079 H        1 UNL1     0.0234
     107 H         0.0   0.0   -0.0 H        1 UNL1     0.0234
     108 H         -2.142294   1.396374   2.927988 H        1 UNL1     0.2098
     109 H         -1.326156   2.92206   0.981038 H        1 UNL1     0.0234
     110 H         -1.254766   2.621977   -0.78465 H        1 UNL1     0.0234
     111 H         -2.36469   3.779333   -0.138554 H        1 UNL1     0.0234
     112 H         -1.46417   -3.425317   -1.753488 H        1 UNL1     0.0342
     113 H         -2.641756   -2.698513   -0.603146 H        1 UNL1     0.0342
     114 H         -2.864993   -2.514687   -2.345083 H        1 UNL1     0.0342
     115 H         -4.034114   -2.088209   1.090531 H        1 UNL1     0.0234
     116 H         -3.342353   -2.089153   2.716032 H        1 UNL1     0.0234
     117 H         -4.349998   -0.760356   2.105625 H        1 UNL1     0.0234
     118 H         -4.815787   5.67881   2.238825 H        1 UNL1     0.0309
     119 H         -3.746668   7.115832   2.235346 H        1 UNL1     0.0309
     120 H         -3.216775   5.574147   1.599282 H        1 UNL1     0.0309
     121 H         -5.583935   1.898981   3.546429 H        1 UNL1     0.0524
     122 H         -6.442214   1.228485   2.153358 H        1 UNL1     0.0524
     123 H         -5.849173   0.138096   3.431285 H        1 UNL1     0.0524
@<TRIPOS>BOND
     1     1     2    1
     2     1    42    1
     3     2     3    2
     4     3     4    1
     5     4     5    2
     6     5     7    1
     7     6    75    1
     8     6    76    1
     9     6    77    1
    10     7     9   am
    11     9    10    1
    12    10    11    2
    13    10    43    1
    14    11    14    1
    15    11    15    1
    16    12    13   ar
    17    12    27   ar
    18    12    43    1
    19    13    14    1
    20    13    30   ar
    21    14    17    2
    22    15    16    1
    23    16    17    1
    24    16    18    1
    25    16    22    1
    26    18    19    1
    27    19    20    1
    28    20    21    1
    29    21    22    1
    30    23    24    1
    31    23    88    1
    32    23    89    1
    33    24    25    1
    34    24    26    1
    35    24    90    1
    36    25    91    1
    37    25    92    1
    38    25    93    1
    39    26    94    1
    40    26    95    1
    41    26    96    1
    42    27    28   ar
    43    28    29   ar
    44    29    30   ar
    45    29    31    1
    46    30    33    1
    47    31    32    1
    48    32    33    1
    49    32    35    1
    50    34    97    1
    51    34    98    1
    52    34    99    1
    53    35    61    1
    54    36    37    1
    55    36    60    1
    56    37    38    1
    57    38    39    1
    58    39    40    1
    59    40    41    1
    60    41    42    1
    61    45   100    1
    62    47   101    1
    63    47   102    1
    64    47   103    1
    65    48   104    1
    66    49   105    1
    67    49   106    1
    68    49   107    1
    69    50   108    1
    70    51    59    1
    71    52   109    1
    72    52   110    1
    73    52   111    1
    74    53    54    1
    75    54    55    2
    76    54    56    1
    77    56   112    1
    78    56   113    1
    79    56   114    1
    80    57   115    1
    81    57   116    1
    82    57   117    1
    83    58   118    1
    84    58   119    1
    85    58   120    1
    86    59   121    1
    87    59   122    1
    88    59   123    1
    89    60    61    2
    90     1    47    1
    91     1    62    1
    92     2    63    1
    93     3    64    1
    94     4    65    1
    95     5     6    1
    96     7     8    2
    97     9    78    1
    98    15    79    1
    99    18    80    1
   100    18    81    1
   101    19    82    1
   102    19    83    1
   103    20    23    1
   104    21    84    1
   105    21    85    1
   106    22    86    1
   107    22    87    1
   108    27    45    1
   109    28    34    1
   110    32    58    1
   111    33    46    2
   112    36    51    1
   113    36    66    1
   114    37    52    1
   115    37    67    1
   116    38    53    1
   117    38    68    1
   118    42    48    1
   119    42    72    1
   120    43    44    2
   121    60    73    1
   122    61    74    1
   123    39    69    1
   124    39    57    1
   125    40    70    1
   126    40    50    1
   127    41    71    1
   128    41    49    1
