@<TRIPOS>MOLECULE
*****
 123 128 0 0 0
SMALL
GASTEIGER

@<TRIPOS>ATOM
     1 C         2.657002   -3.604684   -2.785447 C.3        1 UNL1     0.0009
     2 C         2.402816   -4.825729   -4.157116 C.2        1 UNL1     -0.0787
     3 C         2.346328   -6.194296   -4.626029 C.2        1 UNL1     -0.0649
     4 C         1.899372   -6.750616   -6.161313 C.2        1 UNL1     -0.0542
     5 C         1.446113   -7.868186   -6.904732 C.2        1 UNL1     0.0115
     6 C         1.200772   -9.401035   -6.845511 C.3        1 UNL1     -0.0348
     7 C         0.781621   -7.624966   -8.345663 C.2        1 UNL1     0.2441
     8 O         1.379193   -7.81902   -9.395318 O.2        1 UNL1     -0.2702
     9 N         -0.609852   -7.425996   -8.326553 N.am        1 UNL1     -0.2772
     10 C         -0.901963   -6.093287   -8.147998 C.2        1 UNL1     0.1049
     11 C         -0.888278   -5.656322   -6.901765 C.2        1 UNL1     0.0801
     12 C         -0.338996   -3.808295   -8.996061 C.ar        1 UNL1     0.0753
     13 C         -0.132195   -3.437424   -7.629204 C.ar        1 UNL1     0.0305
     14 C         -0.528288   -4.314845   -6.529981 C.2        1 UNL1     0.0924
     15 N         -0.840478   -6.341692   -5.746555 N.pl3        1 UNL1     -0.3170
     16 C         -1.022747   -5.403391   -4.671091 C.3        1 UNL1     0.1275
     17 N         -0.504087   -4.096006   -5.218321 N.2        1 UNL1     -0.2557
     18 C         -2.525332   -5.217436   -4.483049 C.3        1 UNL1     0.0016
     19 C         -3.157496   -6.579027   -4.242157 C.3        1 UNL1     0.0026
     20 N         -2.551012   -7.17362   -3.059082 N.3        1 UNL1     -0.3018
     21 C         -1.097002   -7.336143   -3.120795 C.3        1 UNL1     0.0026
     22 C         -0.482337   -5.955748   -3.358686 C.3        1 UNL1     0.0016
     23 C         -3.281137   -8.326076   -2.569791 C.3        1 UNL1     0.0012
     24 C         -4.622997   -7.893634   -1.958103 C.3        1 UNL1     -0.0339
     25 C         -5.809432   -8.545914   -2.686774 C.3        1 UNL1     -0.0615
     26 C         -4.641469   -8.203285   -0.47131 C.3        1 UNL1     -0.0615
     27 C         -0.070948   -2.918672   -10.03377 C.ar        1 UNL1     0.1347
     28 C         0.367669   -1.622902   -9.827259 C.ar        1 UNL1     0.0342
     29 C         0.610809   -1.296133   -8.476234 C.ar        1 UNL1     0.1435
     30 C         0.381291   -2.188971   -7.428674 C.ar        1 UNL1     0.0774
     31 O         0.935589   -0.039176   -8.102624 O.3        1 UNL1     -0.4436
     32 C         0.636672   0.010744   -6.699403 C.3        1 UNL1     0.3143
     33 C         0.683359   -1.430235   -6.232915 C.2        1 UNL1     0.2504
     34 C         0.435067   -0.538699   -10.866518 C.3        1 UNL1     -0.0327
     35 O         1.720895   0.692584   -6.056903 O.2        1 UNL1     -0.4528
     36 C         0.215248   2.424893   -3.033623 C.3        1 UNL1     0.0854
     37 C         -0.589057   1.803841   -1.827426 C.3        1 UNL1     0.0236
     38 C         0.005249   2.13725   -0.375744 C.3        1 UNL1     0.1131
     39 C         1.53877   1.887392   -0.078832 C.3        1 UNL1     0.0200
     40 C         2.283583   0.489197   -0.601081 C.3        1 UNL1     0.0661
     41 C         1.709285   -1.089691   -0.366766 C.3        1 UNL1     0.0091
     42 C         1.873379   -2.583967   -1.418249 C.3        1 UNL1     0.0661
     43 C         -0.933229   -5.1407   -9.267799 C.2        1 UNL1     0.2131
     44 O         -1.51017   -5.421988   -10.302571 O.2        1 UNL1     -0.2851
     45 O         -0.255723   -3.373887   -11.337639 O.3        1 UNL1     -0.5056
     46 O         0.935199   -1.856845   -5.128182 O.2        1 UNL1     -0.2836
     47 C         4.166051   -3.487674   -2.440395 C.3        1 UNL1     -0.0566
     48 O         2.283175   -3.466033   -0.29881 O.3        1 UNL1     -0.3909
     49 C         0.266679   -1.022589   0.082543 C.3        1 UNL1     -0.0577
     50 O         2.759742   0.638874   -1.923425 O.3        1 UNL1     -0.3910
     51 O         1.439848   3.041277   -2.705208 O.3        1 UNL1     -0.3753
     52 C         -1.177439   0.399243   -2.182195 C.3        1 UNL1     -0.0564
     53 O         -0.948588   1.844682   0.745382 O.3        1 UNL1     -0.4608
     54 C         -0.603574   1.338335   1.97115 C.2        1 UNL1     0.3042
     55 O         -0.304426   1.970854   2.983212 O.2        1 UNL1     -0.2512
     56 C         -0.669079   -0.160768   2.042672 C.3        1 UNL1     0.0332
     57 C         2.306391   3.271526   -0.30928 C.3        1 UNL1     -0.0567
     58 C         -0.816143   0.527021   -6.579755 C.3        1 UNL1     0.0210
     59 C         1.434185   4.465877   -2.784888 C.3        1 UNL1     0.0372
     60 C         0.494423   1.485215   -4.153546 C.2        1 UNL1     -0.0208
     61 C         1.613868   1.275833   -4.847625 C.2        1 UNL1     0.0882
     62 H         2.433524   -2.795031   -3.490594 H        1 UNL1     0.0365
     63 H         2.275647   -4.152841   -5.007715 H        1 UNL1     0.0576
     64 H         2.439577   -7.038866   -3.939651 H        1 UNL1     0.0615
     65 H         1.912849   -5.8488   -6.779397 H        1 UNL1     0.0622
     66 H         -0.454004   3.193604   -3.445003 H        1 UNL1     0.0645
     67 H         -1.534349   2.373751   -1.813776 H        1 UNL1     0.0362
     68 H         -0.117984   3.231018   -0.373297 H        1 UNL1     0.0741
     69 H         1.683824   1.84738   0.992506 H        1 UNL1     0.0359
     70 H         3.195525   0.51339   0.025685 H        1 UNL1     0.0600
     71 H         2.220771   -1.342503   0.582668 H        1 UNL1     0.0348
     72 H         2.662218   -1.892624   -1.748541 H        1 UNL1     0.0602
     73 H         -0.413159   1.027008   -4.459472 H        1 UNL1     0.0628
     74 H         2.594736   1.660807   -4.566679 H        1 UNL1     0.1022
     75 H         2.086321   -9.923219   -6.409437 H        1 UNL1     0.0279
     76 H         0.390287   -9.738164   -6.20323 H        1 UNL1     0.0279
     77 H         1.146678   -9.861894   -7.842699 H        1 UNL1     0.0279
     78 H         -1.017646   -7.936247   -7.545896 H        1 UNL1     0.1553
     79 H         -1.07547   -7.313884   -5.665592 H        1 UNL1     0.1484
     80 H         -2.698791   -4.540174   -3.638067 H        1 UNL1     0.0317
     81 H         -2.973946   -4.742847   -5.362346 H        1 UNL1     0.0317
     82 H         -3.049682   -7.238302   -5.116024 H        1 UNL1     0.0428
     83 H         -4.228964   -6.423472   -4.112506 H        1 UNL1     0.0428
     84 H         -0.657567   -7.710048   -2.190793 H        1 UNL1     0.0428
     85 H         -0.800343   -8.079357   -3.873751 H        1 UNL1     0.0428
     86 H         0.579198   -6.091493   -3.265382 H        1 UNL1     0.0317
     87 H         -0.727107   -5.287663   -2.523913 H        1 UNL1     0.0317
     88 H         -3.482699   -8.989339   -3.421113 H        1 UNL1     0.0429
     89 H         -2.68413   -8.899908   -1.849322 H        1 UNL1     0.0429
     90 H         -4.719964   -6.804434   -2.038433 H        1 UNL1     0.0308
     91 H         -5.86322   -8.220278   -3.729928 H        1 UNL1     0.0233
     92 H         -5.730919   -9.63514   -2.65468 H        1 UNL1     0.0233
     93 H         -6.77212   -8.294991   -2.225141 H        1 UNL1     0.0233
     94 H         -5.360994   -7.555137   0.040572 H        1 UNL1     0.0233
     95 H         -4.947568   -9.240626   -0.309476 H        1 UNL1     0.0233
     96 H         -3.657126   -8.051166   -0.019761 H        1 UNL1     0.0233
     97 H         -0.163473   0.325249   -10.593435 H        1 UNL1     0.0280
     98 H         1.457182   -0.16371   -11.007662 H        1 UNL1     0.0280
     99 H         0.063159   -0.926466   -11.829023 H        1 UNL1     0.0280
     100 H         0.14481   -4.205148   -11.522578 H        1 UNL1     0.2922
     101 H         4.564604   -2.557446   -2.84473 H        1 UNL1     0.0236
     102 H         4.746628   -4.353359   -2.757417 H        1 UNL1     0.0236
     103 H         4.338033   -3.416743   -1.353389 H        1 UNL1     0.0236
     104 H         1.518155   -4.030516   -0.072813 H        1 UNL1     0.2098
     105 H         -0.422249   -1.596739   -0.531901 H        1 UNL1     0.0234
     106 H         0.107485   -1.245308   1.137522 H        1 UNL1     0.0234
     107 H         0.0   0.0   0.0 H        1 UNL1     0.0234
     108 H         3.303293   1.449929   -1.945972 H        1 UNL1     0.2098
     109 H         -1.878528   0.443314   -3.027325 H        1 UNL1     0.0234
     110 H         -0.406267   -0.351794   -2.384632 H        1 UNL1     0.0234
     111 H         -1.747798   -0.023939   -1.344607 H        1 UNL1     0.0234
     112 H         -0.452685   -0.494524   3.062048 H        1 UNL1     0.0342
     113 H         -1.628811   -0.545527   1.701032 H        1 UNL1     0.0342
     114 H         0.107781   -0.570036   1.382253 H        1 UNL1     0.0342
     115 H         2.692465   3.686081   0.632144 H        1 UNL1     0.0234
     116 H         3.144067   3.203916   -1.006257 H        1 UNL1     0.0234
     117 H         1.646984   4.08923   -0.647635 H        1 UNL1     0.0234
     118 H         -0.860604   1.545603   -6.156057 H        1 UNL1     0.0309
     119 H         -1.357546   0.510855   -7.530977 H        1 UNL1     0.0309
     120 H         -1.416032   -0.064282   -5.879325 H        1 UNL1     0.0309
     121 H         0.395864   4.787759   -2.859976 H        1 UNL1     0.0524
     122 H         1.86352   4.936941   -1.884995 H        1 UNL1     0.0524
     123 H         1.992836   4.795803   -3.656181 H        1 UNL1     0.0524
@<TRIPOS>BOND
     1     1     2    1
     2     1    42    1
     3     2     3    2
     4     3     4    1
     5     4     5    2
     6     5     7    1
     7     6    75    1
     8     6    76    1
     9     6    77    1
    10     7     9   am
    11     9    10    1
    12    10    11    2
    13    10    43    1
    14    11    14    1
    15    11    15    1
    16    12    13   ar
    17    12    27   ar
    18    12    43    1
    19    13    14    1
    20    13    30   ar
    21    14    17    2
    22    15    16    1
    23    16    17    1
    24    16    18    1
    25    16    22    1
    26    18    19    1
    27    19    20    1
    28    20    21    1
    29    21    22    1
    30    23    24    1
    31    23    88    1
    32    23    89    1
    33    24    25    1
    34    24    26    1
    35    24    90    1
    36    25    91    1
    37    25    92    1
    38    25    93    1
    39    26    94    1
    40    26    95    1
    41    26    96    1
    42    27    28   ar
    43    28    29   ar
    44    29    30   ar
    45    29    31    1
    46    30    33    1
    47    31    32    1
    48    32    33    1
    49    32    35    1
    50    34    97    1
    51    34    98    1
    52    34    99    1
    53    35    61    1
    54    36    37    1
    55    36    60    1
    56    37    38    1
    57    38    39    1
    58    39    40    1
    59    40    41    1
    60    41    42    1
    61    45   100    1
    62    47   101    1
    63    47   102    1
    64    47   103    1
    65    48   104    1
    66    49   105    1
    67    49   106    1
    68    49   107    1
    69    50   108    1
    70    51    59    1
    71    52   109    1
    72    52   110    1
    73    52   111    1
    74    53    54    1
    75    54    55    2
    76    54    56    1
    77    56   112    1
    78    56   113    1
    79    56   114    1
    80    57   115    1
    81    57   116    1
    82    57   117    1
    83    58   118    1
    84    58   119    1
    85    58   120    1
    86    59   121    1
    87    59   122    1
    88    59   123    1
    89    60    61    2
    90     1    47    1
    91     1    62    1
    92     2    63    1
    93     3    64    1
    94     4    65    1
    95     5     6    1
    96     7     8    2
    97     9    78    1
    98    15    79    1
    99    18    80    1
   100    18    81    1
   101    19    82    1
   102    19    83    1
   103    20    23    1
   104    21    84    1
   105    21    85    1
   106    22    86    1
   107    22    87    1
   108    27    45    1
   109    28    34    1
   110    32    58    1
   111    33    46    2
   112    36    51    1
   113    36    66    1
   114    37    52    1
   115    37    67    1
   116    38    53    1
   117    38    68    1
   118    42    48    1
   119    42    72    1
   120    43    44    2
   121    60    73    1
   122    61    74    1
   123    39    69    1
   124    39    57    1
   125    40    70    1
   126    40    50    1
   127    41    71    1
   128    41    49    1
