@<TRIPOS>MOLECULE
*****
 123 128 0 0 0
SMALL
GASTEIGER

@<TRIPOS>ATOM
     1 C         1.01843   -1.175396   -4.559888 C.3        1 UNL1     0.0009
     2 C         2.515341   -0.957026   -5.631619 C.2        1 UNL1     -0.0787
     3 C         3.156189   -0.370559   -6.789815 C.2        1 UNL1     -0.0649
     4 C         4.785698   -0.468693   -7.238623 C.2        1 UNL1     -0.0542
     5 C         5.813706   0.120971   -8.01488 C.2        1 UNL1     0.0115
     6 C         6.10834   1.174999   -9.117394 C.3        1 UNL1     -0.0348
     7 C         7.342628   -0.231931   -7.675992 C.2        1 UNL1     0.2441
     8 O         8.004947   -1.021887   -8.334649 O.2        1 UNL1     -0.2702
     9 N         7.948753   0.618529   -6.734991 N.am        1 UNL1     -0.2772
     10 C         7.729503   0.155517   -5.457935 C.2        1 UNL1     0.1049
     11 C         6.572763   0.482461   -4.910868 C.2        1 UNL1     0.0801
     12 C         7.85892   -1.905014   -4.045563 C.ar        1 UNL1     0.0753
     13 C         6.516588   -1.617079   -3.640784 C.ar        1 UNL1     0.0305
     14 C         5.878144   -0.341976   -3.959456 C.2        1 UNL1     0.0924
     15 N         5.648417   1.37211   -5.311662 N.pl3        1 UNL1     -0.3170
     16 C         4.656624   1.472894   -4.274143 C.3        1 UNL1     0.1275
     17 N         4.69242   0.130419   -3.585519 N.2        1 UNL1     -0.2557
     18 C         5.169832   2.485499   -3.254854 C.3        1 UNL1     0.0016
     19 C         5.462022   3.793244   -3.973198 C.3        1 UNL1     0.0026
     20 N         4.237663   4.262425   -4.607109 N.3        1 UNL1     -0.3018
     21 C         3.63378   3.328863   -5.56008 C.3        1 UNL1     0.0026
     22 C         3.344353   2.023971   -4.816182 C.3        1 UNL1     0.0016
     23 C         4.328128   5.635953   -5.060848 C.3        1 UNL1     0.0012
     24 C         4.920498   5.697283   -6.477567 C.3        1 UNL1     -0.0339
     25 C         4.118974   6.648281   -7.381567 C.3        1 UNL1     -0.0615
     26 C         6.386099   6.090453   -6.412658 C.3        1 UNL1     -0.0615
     27 C         8.502062   -3.070577   -3.635746 C.ar        1 UNL1     0.1347
     28 C         7.921266   -4.000321   -2.791765 C.ar        1 UNL1     0.0342
     29 C         6.582311   -3.719958   -2.445701 C.ar        1 UNL1     0.1435
     30 C         5.913008   -2.574389   -2.87805 C.ar        1 UNL1     0.0774
     31 O         5.915363   -4.472099   -1.543221 O.3        1 UNL1     -0.4436
     32 C         4.827004   -3.641129   -1.112132 C.3        1 UNL1     0.3143
     33 C         4.6164   -2.648672   -2.237693 C.2        1 UNL1     0.2504
     34 C         8.63055   -5.138154   -2.1118 C.3        1 UNL1     -0.0327
     35 O         3.656511   -4.465962   -1.058755 O.2        1 UNL1     -0.4528
     36 C         1.470874   -2.995376   1.674093 C.3        1 UNL1     0.0854
     37 C         0.892192   -1.534395   1.808945 C.3        1 UNL1     0.0236
     38 C         -0.700088   -1.451324   1.980664 C.3        1 UNL1     0.1131
     39 C         -1.640172   -2.223236   0.969396 C.3        1 UNL1     0.0200
     40 C         -1.32434   -2.193829   -0.668232 C.3        1 UNL1     0.0661
     41 C         -1.020815   -0.807095   -1.596914 C.3        1 UNL1     0.0091
     42 C         0.042449   -0.572906   -3.073406 C.3        1 UNL1     0.0661
     43 C         8.574998   -0.878588   -4.843021 C.2        1 UNL1     0.2131
     44 O         9.788487   -0.808369   -4.915485 O.2        1 UNL1     -0.2851
     45 O         9.791966   -3.296999   -4.111475 O.3        1 UNL1     -0.5056
     46 O         3.601255   -2.067202   -2.549503 O.2        1 UNL1     -0.2836
     47 C         -0.00737   -2.113549   -5.250962 C.3        1 UNL1     -0.0566
     48 O         -0.990932   0.162296   -3.841988 O.3        1 UNL1     -0.3909
     49 C         -0.745176   0.352798   -0.666233 C.3        1 UNL1     -0.0577
     50 O         -0.419594   -3.220253   -1.022648 O.3        1 UNL1     -0.3910
     51 O         0.517708   -4.026125   1.545792 O.3        1 UNL1     -0.3753
     52 C         1.68866   -0.51026   0.936171 C.3        1 UNL1     -0.0564
     53 O         -1.184116   -0.111546   2.452932 O.3        1 UNL1     -0.4608
     54 C         -2.455937   0.374469   2.297395 C.2        1 UNL1     0.3042
     55 O         -3.158146   0.319926   1.288551 O.2        1 UNL1     -0.2512
     56 C         -3.024832   0.981729   3.548117 C.3        1 UNL1     0.0332
     57 C         -2.008393   -3.631506   1.632241 C.3        1 UNL1     -0.0567
     58 C         5.326584   -2.879476   0.137602 C.3        1 UNL1     0.0210
     59 C         0.993711   -5.32813   1.883533 C.3        1 UNL1     0.0372
     60 C         2.456103   -3.182483   0.574331 C.2        1 UNL1     -0.0208
     61 C         2.566504   -4.155494   -0.331101 C.2        1 UNL1     0.0882
     62 H         1.614815   -1.8045   -3.888126 H        1 UNL1     0.0365
     63 H         3.213734   -1.643313   -5.148166 H        1 UNL1     0.0576
     64 H         2.642491   0.358537   -7.420402 H        1 UNL1     0.0615
     65 H         5.181273   -1.2711   -6.610017 H        1 UNL1     0.0622
     66 H         2.026916   -3.159297   2.607899 H        1 UNL1     0.0645
     67 H         1.237841   -1.199781   2.802483 H        1 UNL1     0.0362
     68 H         -0.809292   -1.978294   2.940821 H        1 UNL1     0.0741
     69 H         -2.634444   -1.800695   1.026749 H        1 UNL1     0.0359
     70 H         -2.301184   -2.539726   -1.057065 H        1 UNL1     0.0600
     71 H         -2.048824   -0.573178   -1.936674 H        1 UNL1     0.0348
     72 H         -0.144405   -1.654295   -3.002704 H        1 UNL1     0.0602
     73 H         3.21714   -2.446944   0.658316 H        1 UNL1     0.0628
     74 H         1.803865   -4.91186   -0.519592 H        1 UNL1     0.1022
     75 H         5.156042   1.574472   -9.542346 H        1 UNL1     0.0279
     76 H         6.620543   2.0801   -8.798791 H        1 UNL1     0.0279
     77 H         6.577175   0.736533   -10.010503 H        1 UNL1     0.0279
     78 H         7.537657   1.547509   -6.798816 H        1 UNL1     0.1553
     79 H         5.834757   2.115221   -5.959733 H        1 UNL1     0.1484
     80 H         4.413818   2.618976   -2.47166 H        1 UNL1     0.0317
     81 H         6.073882   2.117027   -2.758294 H        1 UNL1     0.0317
     82 H         6.271254   3.681186   -4.709743 H        1 UNL1     0.0428
     83 H         5.828384   4.500392   -3.228369 H        1 UNL1     0.0428
     84 H         2.674735   3.670878   -5.961415 H        1 UNL1     0.0428
     85 H         4.261863   3.190848   -6.451024 H        1 UNL1     0.0428
     86 H         2.785653   1.416478   -5.503783 H        1 UNL1     0.0317
     87 H         2.632059   2.206666   -4.002329 H        1 UNL1     0.0317
     88 H         3.313434   6.054235   -5.0879 H        1 UNL1     0.0429
     89 H         4.910357   6.249475   -4.361296 H        1 UNL1     0.0429
     90 H         4.898789   4.694157   -6.919699 H        1 UNL1     0.0308
     91 H         3.667095   7.459934   -6.803529 H        1 UNL1     0.0233
     92 H         4.758853   7.074051   -8.158024 H        1 UNL1     0.0233
     93 H         3.301817   6.137246   -7.904953 H        1 UNL1     0.0233
     94 H         6.541242   7.053456   -6.911047 H        1 UNL1     0.0233
     95 H         6.698751   6.196217   -5.370054 H        1 UNL1     0.0233
     96 H         7.021354   5.344022   -6.897693 H        1 UNL1     0.0233
     97 H         8.922985   -5.913568   -2.813544 H        1 UNL1     0.0280
     98 H         9.556598   -4.813506   -1.619565 H        1 UNL1     0.0280
     99 H         7.96606   -5.588509   -1.356334 H        1 UNL1     0.0280
     100 H         10.475188   -2.92136   -3.584478 H        1 UNL1     0.2922
     101 H         -0.507253   -1.580036   -6.05913 H        1 UNL1     0.0236
     102 H         -0.717026   -2.559594   -4.554962 H        1 UNL1     0.0236
     103 H         0.481425   -2.971408   -5.742236 H        1 UNL1     0.0236
     104 H         -1.516453   -0.497396   -4.33555 H        1 UNL1     0.2098
     105 H         -0.357733   1.24129   -1.158453 H        1 UNL1     0.0234
     106 H         -1.573755   0.616051   -0.008904 H        1 UNL1     0.0234
     107 H         0.0   0.0   0.0 H        1 UNL1     0.0234
     108 H         0.400632   -3.072517   -0.513561 H        1 UNL1     0.2098
     109 H         1.669089   -0.769824   -0.131516 H        1 UNL1     0.0234
     110 H         1.349905   0.522948   1.068344 H        1 UNL1     0.0234
     111 H         2.750316   -0.480093   1.215317 H        1 UNL1     0.0234
     112 H         -3.470416   0.200698   4.171649 H        1 UNL1     0.0342
     113 H         -2.279156   1.547772   4.104359 H        1 UNL1     0.0342
     114 H         -3.823735   1.67824   3.25865 H        1 UNL1     0.0342
     115 H         -2.408924   -3.512335   2.648392 H        1 UNL1     0.0234
     116 H         -2.732189   -4.215608   1.060408 H        1 UNL1     0.0234
     117 H         -1.129495   -4.27103   1.823263 H        1 UNL1     0.0234
     118 H         4.943252   -1.844684   0.173216 H        1 UNL1     0.0309
     119 H         5.07957   -3.38542   1.076328 H        1 UNL1     0.0309
     120 H         6.413943   -2.746292   0.141918 H        1 UNL1     0.0309
     121 H         1.301835   -5.81649   0.959455 H        1 UNL1     0.0524
     122 H         1.872153   -5.292781   2.54921 H        1 UNL1     0.0524
     123 H         0.207996   -5.901912   2.366774 H        1 UNL1     0.0524
@<TRIPOS>BOND
     1     1     2    1
     2     1    42    1
     3     2     3    2
     4     3     4    1
     5     4     5    2
     6     5     7    1
     7     6    75    1
     8     6    76    1
     9     6    77    1
    10     7     9   am
    11     9    10    1
    12    10    11    2
    13    10    43    1
    14    11    14    1
    15    11    15    1
    16    12    13   ar
    17    12    27   ar
    18    12    43    1
    19    13    14    1
    20    13    30   ar
    21    14    17    2
    22    15    16    1
    23    16    17    1
    24    16    18    1
    25    16    22    1
    26    18    19    1
    27    19    20    1
    28    20    21    1
    29    21    22    1
    30    23    24    1
    31    23    88    1
    32    23    89    1
    33    24    25    1
    34    24    26    1
    35    24    90    1
    36    25    91    1
    37    25    92    1
    38    25    93    1
    39    26    94    1
    40    26    95    1
    41    26    96    1
    42    27    28   ar
    43    28    29   ar
    44    29    30   ar
    45    29    31    1
    46    30    33    1
    47    31    32    1
    48    32    33    1
    49    32    35    1
    50    34    97    1
    51    34    98    1
    52    34    99    1
    53    35    61    1
    54    36    37    1
    55    36    60    1
    56    37    38    1
    57    38    39    1
    58    39    40    1
    59    40    41    1
    60    41    42    1
    61    45   100    1
    62    47   101    1
    63    47   102    1
    64    47   103    1
    65    48   104    1
    66    49   105    1
    67    49   106    1
    68    49   107    1
    69    50   108    1
    70    51    59    1
    71    52   109    1
    72    52   110    1
    73    52   111    1
    74    53    54    1
    75    54    55    2
    76    54    56    1
    77    56   112    1
    78    56   113    1
    79    56   114    1
    80    57   115    1
    81    57   116    1
    82    57   117    1
    83    58   118    1
    84    58   119    1
    85    58   120    1
    86    59   121    1
    87    59   122    1
    88    59   123    1
    89    60    61    2
    90     1    47    1
    91     1    62    1
    92     2    63    1
    93     3    64    1
    94     4    65    1
    95     5     6    1
    96     7     8    2
    97     9    78    1
    98    15    79    1
    99    18    80    1
   100    18    81    1
   101    19    82    1
   102    19    83    1
   103    20    23    1
   104    21    84    1
   105    21    85    1
   106    22    86    1
   107    22    87    1
   108    27    45    1
   109    28    34    1
   110    32    58    1
   111    33    46    2
   112    36    51    1
   113    36    66    1
   114    37    52    1
   115    37    67    1
   116    38    53    1
   117    38    68    1
   118    42    48    1
   119    42    72    1
   120    43    44    2
   121    60    73    1
   122    61    74    1
   123    39    69    1
   124    39    57    1
   125    40    70    1
   126    40    50    1
   127    41    71    1
   128    41    49    1
