@<TRIPOS>MOLECULE
*****
 123 128 0 0 0
SMALL
GASTEIGER

@<TRIPOS>ATOM
     1 C         -2.24031   0.489649   4.614273 C.3        1 UNL1     0.0009
     2 C         -3.896818   0.946708   5.310058 C.2        1 UNL1     -0.0787
     3 C         -4.729366   1.839829   6.088033 C.2        1 UNL1     -0.0649
     4 C         -6.408752   1.781358   6.294434 C.2        1 UNL1     -0.0542
     5 C         -7.560179   2.521819   6.659141 C.2        1 UNL1     0.0115
     6 C         -8.049752   3.860336   7.277213 C.3        1 UNL1     -0.0348
     7 C         -9.006321   1.96731   6.237027 C.2        1 UNL1     0.2441
     8 O         -9.755194   1.398405   7.019371 O.2        1 UNL1     -0.2702
     9 N         -9.462787   2.407682   4.98249 N.am        1 UNL1     -0.2772
     10 C         -9.028426   1.560552   3.989 C.2        1 UNL1     0.1049
     11 C         -7.802807   1.767232   3.542498 C.2        1 UNL1     0.0801
     12 C         -8.889511   -0.857723   3.364515 C.ar        1 UNL1     0.0753
     13 C         -7.503691   -0.62674   3.091094 C.ar        1 UNL1     0.0305
     14 C         -6.947443   0.723663   3.045815 C.2        1 UNL1     0.0924
     15 N         -6.971857   2.803479   3.748024 N.pl3        1 UNL1     -0.3170
     16 C         -5.824338   2.621571   2.899281 C.3        1 UNL1     0.1275
     17 N         -5.724165   1.127068   2.714483 N.2        1 UNL1     -0.2557
     18 C         -6.178911   3.194701   1.530522 C.3        1 UNL1     0.0016
     19 C         -6.606869   4.643056   1.705757 C.3        1 UNL1     0.0026
     20 N         -5.511627   5.383846   2.316251 N.3        1 UNL1     -0.3018
     21 C         -5.057988   4.869249   3.609994 C.3        1 UNL1     0.0026
     22 C         -4.628587   3.414816   3.409663 C.3        1 UNL1     0.0016
     23 C         -5.698091   6.819798   2.253658 C.3        1 UNL1     0.0012
     24 C         -4.343646   7.542421   2.324724 C.3        1 UNL1     -0.0339
     25 C         -3.387919   6.850108   3.310293 C.3        1 UNL1     -0.0615
     26 C         -3.735811   7.647163   0.936796 C.3        1 UNL1     -0.0615
     27 C         -9.437151   -2.136085   3.287056 C.ar        1 UNL1     0.1347
     28 C         -8.710032   -3.250744   2.909058 C.ar        1 UNL1     0.0342
     29 C         -7.337101   -3.007447   2.692191 C.ar        1 UNL1     0.1435
     30 C         -6.76705   -1.738449   2.801304 C.ar        1 UNL1     0.0774
     31 O         -6.518274   -3.968682   2.212028 O.3        1 UNL1     -0.4436
     32 C         -5.387447   -3.254515   1.690428 C.3        1 UNL1     0.3143
     33 C         -5.381562   -1.929961   2.426455 C.2        1 UNL1     0.2504
     34 C         -9.278806   -4.598291   2.561616 C.3        1 UNL1     -0.0327
     35 O         -4.210864   -3.963544   2.098081 O.2        1 UNL1     -0.4528
     36 C         -1.628821   -3.341039   -0.613677 C.3        1 UNL1     0.0854
     37 C         -1.05976   -1.972218   -1.152213 C.3        1 UNL1     0.0236
     38 C         0.537467   -1.837736   -1.101975 C.3        1 UNL1     0.1131
     39 C         1.310406   -2.15687   0.240778 C.3        1 UNL1     0.0200
     40 C         0.728423   -1.603226   1.702699 C.3        1 UNL1     0.0661
     41 C         0.253311   -0.011006   2.044336 C.3        1 UNL1     0.0091
     42 C         -1.042545   0.627551   3.175001 C.3        1 UNL1     0.0661
     43 C         -9.743949   0.322501   3.646055 C.2        1 UNL1     0.2131
     44 O         -10.953758   0.325894   3.507897 O.2        1 UNL1     -0.2851
     45 O         -10.783971   -2.281755   3.613082 O.3        1 UNL1     -0.5056
     46 O         -4.441362   -1.206557   2.668455 O.2        1 UNL1     -0.2836
     47 C         -1.327326   -0.086802   5.729686 C.3        1 UNL1     -0.0566
     48 O         -0.162192   1.649713   3.790857 O.3        1 UNL1     -0.3909
     49 C         0.116007   0.747187   0.742882 C.3        1 UNL1     -0.0577
     50 O         -0.205496   -2.513566   2.247492 O.3        1 UNL1     -0.3910
     51 O         -0.693155   -4.198216   0.000496 O.3        1 UNL1     -0.3753
     52 C         -2.005859   -0.774668   -0.812035 C.3        1 UNL1     -0.0564
     53 O         1.0708   -0.702596   -1.926196 O.3        1 UNL1     -0.4608
     54 C         2.348275   -0.604595   -2.412389 C.2        1 UNL1     0.3042
     55 O         2.7058   -0.101199   -3.476629 O.2        1 UNL1     -0.2512
     56 C         3.391884   -1.138619   -1.473021 C.3        1 UNL1     0.0332
     57 C         1.805835   -3.675634   0.162788 C.3        1 UNL1     -0.0567
     58 C         -5.686482   -2.993377   0.195799 C.3        1 UNL1     0.0210
     59 C         -0.428636   -5.405786   -0.712013 C.3        1 UNL1     0.0372
     60 C         -2.77872   -3.218909   0.323327 C.2        1 UNL1     -0.0208
     61 C         -3.021007   -3.837618   1.479719 C.2        1 UNL1     0.0882
     62 H         -2.707406   -0.369122   4.117237 H        1 UNL1     0.0365
     63 H         -4.494629   0.089999   4.992033 H        1 UNL1     0.0576
     64 H         -4.338656   2.772829   6.5003 H        1 UNL1     0.0615
     65 H         -6.6821   0.788601   5.926744 H        1 UNL1     0.0622
     66 H         -2.020518   -3.847674   -1.506952 H        1 UNL1     0.0645
     67 H         -1.242265   -2.015435   -2.240047 H        1 UNL1     0.0362
     68 H         0.812093   -2.646666   -1.796047 H        1 UNL1     0.0741
     69 H         2.293491   -1.707947   0.191579 H        1 UNL1     0.0359
     70 H         1.633294   -1.728014   2.327755 H        1 UNL1     0.0600
     71 H         1.207264   0.396158   2.433114 H        1 UNL1     0.0348
     72 H         -0.828956   -0.398717   3.507368 H        1 UNL1     0.0602
     73 H         -3.527399   -2.610482   -0.120006 H        1 UNL1     0.0628
     74 H         -2.287641   -4.430487   2.027366 H        1 UNL1     0.1022
     75 H         -7.306668   4.245816   8.016311 H        1 UNL1     0.0279
     76 H         -8.157387   4.699607   6.59376 H        1 UNL1     0.0279
     77 H         -8.940544   3.735796   7.910207 H        1 UNL1     0.0279
     78 H         -9.08307   3.331257   4.785256 H        1 UNL1     0.1553
     79 H         -7.274621   3.705399   4.067096 H        1 UNL1     0.1484
     80 H         -5.306382   3.111833   0.871285 H        1 UNL1     0.0317
     81 H         -6.982565   2.617465   1.060852 H        1 UNL1     0.0317
     82 H         -7.524538   4.72661   2.306437 H        1 UNL1     0.0428
     83 H         -6.856895   5.031669   0.718074 H        1 UNL1     0.0428
     84 H         -4.183964   5.393663   4.008597 H        1 UNL1     0.0428
     85 H         -5.822048   4.993107   4.389859 H        1 UNL1     0.0428
     86 H         -4.181073   3.114422   4.338901 H        1 UNL1     0.0317
     87 H         -3.794923   3.364788   2.69861 H        1 UNL1     0.0317
     88 H         -6.172956   7.061009   1.29365 H        1 UNL1     0.0429
     89 H         -6.375068   7.168824   3.044011 H        1 UNL1     0.0429
     90 H         -4.504031   8.573933   2.660094 H        1 UNL1     0.0308
     91 H         -3.1132   7.517127   4.132921 H        1 UNL1     0.0233
     92 H         -3.843583   5.945234   3.719172 H        1 UNL1     0.0233
     93 H         -2.453197   6.532678   2.832414 H        1 UNL1     0.0233
     94 H         -3.687348   8.695754   0.623837 H        1 UNL1     0.0233
     95 H         -2.716855   7.250129   0.94421 H        1 UNL1     0.0233
     96 H         -4.324994   7.093602   0.200317 H        1 UNL1     0.0233
     97 H         -9.958111   -4.54808   1.715889 H        1 UNL1     0.0280
     98 H         -8.498255   -5.316282   2.277917 H        1 UNL1     0.0280
     99 H         -9.83257   -4.999221   3.42631 H        1 UNL1     0.0280
     100 H         -11.196462   -1.498456   3.932326 H        1 UNL1     0.2922
     101 H         -1.937051   -0.585998   6.482477 H        1 UNL1     0.0236
     102 H         -0.664328   0.658062   6.168543 H        1 UNL1     0.0236
     103 H         -0.653979   -0.872731   5.34875 H        1 UNL1     0.0236
     104 H         0.697644   1.224546   3.977636 H        1 UNL1     0.2098
     105 H         -0.750172   1.402286   0.693991 H        1 UNL1     0.0234
     106 H         1.012668   1.282592   0.431003 H        1 UNL1     0.0234
     107 H         0.0   0.0   -0.0 H        1 UNL1     0.0234
     108 H         -0.949688   -2.577065   1.618275 H        1 UNL1     0.2098
     109 H         -2.599162   -0.453804   -1.679646 H        1 UNL1     0.0234
     110 H         -2.672751   -0.979439   0.032399 H        1 UNL1     0.0234
     111 H         -1.439496   0.111225   -0.495217 H        1 UNL1     0.0234
     112 H         3.30955   -2.227659   -1.405509 H        1 UNL1     0.0342
     113 H         4.397463   -0.840211   -1.765609 H        1 UNL1     0.0342
     114 H         3.198939   -0.723726   -0.474121 H        1 UNL1     0.0342
     115 H         2.616885   -3.877778   0.875897 H        1 UNL1     0.0234
     116 H         1.018141   -4.409447   0.344735 H        1 UNL1     0.0234
     117 H         2.294389   -3.930441   -0.793419 H        1 UNL1     0.0234
     118 H         -5.658166   -3.921802   -0.401052 H        1 UNL1     0.0309
     119 H         -6.644733   -2.490641   0.030831 H        1 UNL1     0.0309
     120 H         -4.927529   -2.363423   -0.280912 H        1 UNL1     0.0309
     121 H         0.635401   -5.424082   -0.946205 H        1 UNL1     0.0524
     122 H         -0.651861   -6.303337   -0.111506 H        1 UNL1     0.0524
     123 H         -1.014302   -5.43868   -1.626348 H        1 UNL1     0.0524
@<TRIPOS>BOND
     1     1     2    1
     2     1    42    1
     3     2     3    2
     4     3     4    1
     5     4     5    2
     6     5     7    1
     7     6    75    1
     8     6    76    1
     9     6    77    1
    10     7     9   am
    11     9    10    1
    12    10    11    2
    13    10    43    1
    14    11    14    1
    15    11    15    1
    16    12    13   ar
    17    12    27   ar
    18    12    43    1
    19    13    14    1
    20    13    30   ar
    21    14    17    2
    22    15    16    1
    23    16    17    1
    24    16    18    1
    25    16    22    1
    26    18    19    1
    27    19    20    1
    28    20    21    1
    29    21    22    1
    30    23    24    1
    31    23    88    1
    32    23    89    1
    33    24    25    1
    34    24    26    1
    35    24    90    1
    36    25    91    1
    37    25    92    1
    38    25    93    1
    39    26    94    1
    40    26    95    1
    41    26    96    1
    42    27    28   ar
    43    28    29   ar
    44    29    30   ar
    45    29    31    1
    46    30    33    1
    47    31    32    1
    48    32    33    1
    49    32    35    1
    50    34    97    1
    51    34    98    1
    52    34    99    1
    53    35    61    1
    54    36    37    1
    55    36    60    1
    56    37    38    1
    57    38    39    1
    58    39    40    1
    59    40    41    1
    60    41    42    1
    61    45   100    1
    62    47   101    1
    63    47   102    1
    64    47   103    1
    65    48   104    1
    66    49   105    1
    67    49   106    1
    68    49   107    1
    69    50   108    1
    70    51    59    1
    71    52   109    1
    72    52   110    1
    73    52   111    1
    74    53    54    1
    75    54    55    2
    76    54    56    1
    77    56   112    1
    78    56   113    1
    79    56   114    1
    80    57   115    1
    81    57   116    1
    82    57   117    1
    83    58   118    1
    84    58   119    1
    85    58   120    1
    86    59   121    1
    87    59   122    1
    88    59   123    1
    89    60    61    2
    90     1    47    1
    91     1    62    1
    92     2    63    1
    93     3    64    1
    94     4    65    1
    95     5     6    1
    96     7     8    2
    97     9    78    1
    98    15    79    1
    99    18    80    1
   100    18    81    1
   101    19    82    1
   102    19    83    1
   103    20    23    1
   104    21    84    1
   105    21    85    1
   106    22    86    1
   107    22    87    1
   108    27    45    1
   109    28    34    1
   110    32    58    1
   111    33    46    2
   112    36    51    1
   113    36    66    1
   114    37    52    1
   115    37    67    1
   116    38    53    1
   117    38    68    1
   118    42    48    1
   119    42    72    1
   120    43    44    2
   121    60    73    1
   122    61    74    1
   123    39    69    1
   124    39    57    1
   125    40    70    1
   126    40    50    1
   127    41    71    1
   128    41    49    1
