@<TRIPOS>MOLECULE
*****
 123 128 0 0 0
SMALL
GASTEIGER

@<TRIPOS>ATOM
     1 C         4.173345   1.468579   -1.930808 C.3        1 UNL1     0.0009
     2 C         4.625863   2.285521   -3.532329 C.2        1 UNL1     -0.0787
     3 C         5.307092   2.254956   -4.80945 C.2        1 UNL1     -0.0649
     4 C         5.248915   3.408081   -6.047705 C.2        1 UNL1     -0.0542
     5 C         5.46592   3.64134   -7.428131 C.2        1 UNL1     0.0115
     6 C         6.063159   3.032792   -8.726707 C.3        1 UNL1     -0.0348
     7 C         4.800172   4.932136   -8.111955 C.2        1 UNL1     0.2441
     8 O         5.430031   5.949306   -8.367238 O.2        1 UNL1     -0.2702
     9 N         3.512286   4.72315   -8.635238 N.am        1 UNL1     -0.2772
     10 C         2.55908   4.94597   -7.668247 C.2        1 UNL1     0.1049
     11 C         2.317236   3.940542   -6.846756 C.2        1 UNL1     0.0801
     12 C         1.850745   6.592469   -5.923358 C.ar        1 UNL1     0.0753
     13 C         1.805577   5.48924   -5.012614 C.ar        1 UNL1     0.0305
     14 C         1.910078   4.108097   -5.477988 C.2        1 UNL1     0.0924
     15 N         2.696906   2.653385   -6.921608 N.pl3        1 UNL1     -0.3170
     16 C         2.027804   1.935977   -5.869048 C.3        1 UNL1     0.1275
     17 N         1.790764   2.971742   -4.797262 N.2        1 UNL1     -0.2557
     18 C         0.649142   1.545849   -6.393253 C.3        1 UNL1     0.0016
     19 C         0.824001   0.75451   -7.679642 C.3        1 UNL1     0.0026
     20 N         1.630258   -0.42501   -7.397307 N.3        1 UNL1     -0.3018
     21 C         2.952918   -0.152959   -6.830803 C.3        1 UNL1     0.0026
     22 C         2.753229   0.638605   -5.537186 C.3        1 UNL1     0.0016
     23 C         1.607083   -1.394893   -8.474076 C.3        1 UNL1     0.0012
     24 C         0.21212   -2.027479   -8.599252 C.3        1 UNL1     -0.0339
     25 C         -0.890407   -1.048838   -8.162498 C.3        1 UNL1     -0.0615
     26 C         -0.009779   -2.522621   -10.017834 C.3        1 UNL1     -0.0615
     27 C         1.629822   7.897075   -5.488255 C.ar        1 UNL1     0.1347
     28 C         1.31667   8.216903   -4.179172 C.ar        1 UNL1     0.0342
     29 C         1.325904   7.120413   -3.291035 C.ar        1 UNL1     0.1435
     30 C         1.581087   5.812752   -3.705916 C.ar        1 UNL1     0.0774
     31 O         0.933275   7.251736   -2.00511 O.3        1 UNL1     -0.4436
     32 C         0.626499   5.914904   -1.581267 C.3        1 UNL1     0.3143
     33 C         1.415944   5.014064   -2.509425 C.2        1 UNL1     0.2504
     34 C         0.822791   9.550376   -3.691288 C.3        1 UNL1     -0.0327
     35 O         1.1771   5.74716   -0.269035 O.2        1 UNL1     -0.4528
     36 C         -1.071537   3.246473   1.491158 C.3        1 UNL1     0.0854
     37 C         -1.450994   1.775915   1.065722 C.3        1 UNL1     0.0236
     38 C         -1.148649   0.653444   2.170435 C.3        1 UNL1     0.1131
     39 C         0.28082   0.579469   2.843796 C.3        1 UNL1     0.0200
     40 C         1.659777   0.736588   1.918468 C.3        1 UNL1     0.0661
     41 C         1.998334   -0.110037   0.488009 C.3        1 UNL1     0.0091
     42 C         2.944203   0.397426   -0.999679 C.3        1 UNL1     0.0661
     43 C         2.052132   6.292056   -7.362613 C.2        1 UNL1     0.2131
     44 O         1.729264   7.049342   -8.259837 O.2        1 UNL1     -0.2851
     45 O         1.736927   8.918133   -6.430278 O.3        1 UNL1     -0.5056
     46 O         1.833791   3.897154   -2.300209 O.2        1 UNL1     -0.2836
     47 C         5.387987   1.467223   -0.964047 C.3        1 UNL1     -0.0566
     48 O         3.735795   -0.85494   -1.063544 O.3        1 UNL1     -0.3909
     49 C         0.728302   -0.770192   -0.000571 C.3        1 UNL1     -0.0577
     50 O         2.010622   2.097575   1.768978 O.3        1 UNL1     -0.3910
     51 O         -0.361245   3.373535   2.702262 O.3        1 UNL1     -0.3753
     52 C         -1.205069   1.529452   -0.458655 C.3        1 UNL1     -0.0564
     53 O         -1.826528   -0.657118   1.896145 O.3        1 UNL1     -0.4608
     54 C         -2.548501   -1.384587   2.805801 C.2        1 UNL1     0.3042
     55 O         -2.251731   -1.623007   3.97581 O.2        1 UNL1     -0.2512
     56 C         -3.866   -1.873641   2.275012 C.3        1 UNL1     0.0332
     57 C         0.20904   1.393671   4.218604 C.3        1 UNL1     -0.0567
     58 C         -0.882453   5.706807   -1.848264 C.3        1 UNL1     0.0210
     59 C         0.598495   2.345971   2.944905 C.3        1 UNL1     0.0372
     60 C         -0.318501   4.022471   0.468454 C.2        1 UNL1     -0.0208
     61 C         0.756338   4.802116   0.593425 C.2        1 UNL1     0.0882
     62 H         3.57045   2.34812   -1.674611 H        1 UNL1     0.0365
     63 H         4.179563   3.272068   -3.390865 H        1 UNL1     0.0576
     64 H         5.818024   1.357116   -5.164331 H        1 UNL1     0.0615
     65 H         4.797282   4.281464   -5.569466 H        1 UNL1     0.0622
     66 H         -2.037328   3.758242   1.606854 H        1 UNL1     0.0645
     67 H         -2.554776   1.777512   1.050833 H        1 UNL1     0.0362
     68 H         -1.829212   0.991161   2.966867 H        1 UNL1     0.0741
     69 H         0.405019   -0.398071   3.290336 H        1 UNL1     0.0359
     70 H         2.410419   0.333422   2.624905 H        1 UNL1     0.0600
     71 H         2.548322   -0.977625   0.902451 H        1 UNL1     0.0348
     72 H         3.257026   1.078141   -0.194642 H        1 UNL1     0.0602
     73 H         -0.843009   3.985687   -0.453928 H        1 UNL1     0.0628
     74 H         1.382161   4.851271   1.485147 H        1 UNL1     0.1022
     75 H         6.420656   1.990926   -8.54301 H        1 UNL1     0.0279
     76 H         5.377591   2.901562   -9.56088 H        1 UNL1     0.0279
     77 H         6.99329   3.529041   -9.040223 H        1 UNL1     0.0279
     78 H         3.419557   3.756326   -8.939756 H        1 UNL1     0.1553
     79 H         3.0074   2.212588   -7.767909 H        1 UNL1     0.1484
     80 H         0.12928   0.95671   -5.628122 H        1 UNL1     0.0317
     81 H         0.034533   2.433735   -6.57646 H        1 UNL1     0.0317
     82 H         1.279139   1.364197   -8.474024 H        1 UNL1     0.0428
     83 H         -0.171099   0.488035   -8.037157 H        1 UNL1     0.0428
     84 H         3.505771   -1.056056   -6.55407 H        1 UNL1     0.0428
     85 H         3.610489   0.351954   -7.5519 H        1 UNL1     0.0428
     86 H         3.725261   0.703559   -5.084502 H        1 UNL1     0.0317
     87 H         2.177773   0.042681   -4.818283 H        1 UNL1     0.0317
     88 H         1.83857   -0.870979   -9.410677 H        1 UNL1     0.0429
     89 H         2.379126   -2.162749   -8.335798 H        1 UNL1     0.0429
     90 H         0.162513   -2.917128   -7.960287 H        1 UNL1     0.0308
     91 H         -1.170578   -1.20635   -7.116651 H        1 UNL1     0.0233
     92 H         -0.563467   -0.014754   -8.294365 H        1 UNL1     0.0233
     93 H         -1.805534   -1.158381   -8.756954 H        1 UNL1     0.0233
     94 H         -1.014743   -2.946965   -10.116907 H        1 UNL1     0.0233
     95 H         0.075523   -1.690084   -10.7218 H        1 UNL1     0.0233
     96 H         0.718446   -3.291553   -10.290596 H        1 UNL1     0.0233
     97 H         1.118154   9.743379   -2.664282 H        1 UNL1     0.0280
     98 H         1.22727   10.382798   -4.281819 H        1 UNL1     0.0280
     99 H         -0.277829   9.578616   -3.745446 H        1 UNL1     0.0280
     100 H         2.595877   9.295796   -6.502373 H        1 UNL1     0.2922
     101 H         6.313986   1.425479   -1.537143 H        1 UNL1     0.0236
     102 H         5.33652   0.680445   -0.212172 H        1 UNL1     0.0236
     103 H         5.458446   2.403908   -0.38625 H        1 UNL1     0.0236
     104 H         3.725161   -1.256352   -0.172631 H        1 UNL1     0.2098
     105 H         0.789346   -1.169629   -1.009796 H        1 UNL1     0.0234
     106 H         0.313464   -1.51662   0.676688 H        1 UNL1     0.0234
     107 H         -0.0   0.0   0.0 H        1 UNL1     0.0234
     108 H         2.377879   2.205485   0.870509 H        1 UNL1     0.2098
     109 H         -0.329856   0.890283   -0.640804 H        1 UNL1     0.0234
     110 H         -2.077166   1.111956   -0.973326 H        1 UNL1     0.0234
     111 H         -1.004418   2.467561   -0.993105 H        1 UNL1     0.0234
     112 H         -4.502919   -1.021851   2.017848 H        1 UNL1     0.0342
     113 H         -3.742211   -2.54026   1.422874 H        1 UNL1     0.0342
     114 H         -4.36745   -2.440835   3.071255 H        1 UNL1     0.0342
     115 H         -0.728221   1.201306   4.758721 H        1 UNL1     0.0234
     116 H         1.032285   1.181562   4.903678 H        1 UNL1     0.0234
     117 H         0.154507   2.48717   4.079943 H        1 UNL1     0.0234
     118 H         -1.471135   6.615149   -1.630608 H        1 UNL1     0.0309
     119 H         -1.096563   5.377545   -2.870001 H        1 UNL1     0.0309
     120 H         -1.326292   4.953908   -1.187766 H        1 UNL1     0.0309
     121 H         0.163971   1.652141   3.664034 H        1 UNL1     0.0524
     122 H         0.837468   1.773026   2.033498 H        1 UNL1     0.0524
     123 H         1.514413   2.773523   3.342885 H        1 UNL1     0.0524
@<TRIPOS>BOND
     1     1     2    1
     2     1    42    1
     3     2     3    2
     4     3     4    1
     5     4     5    2
     6     5     7    1
     7     6    75    1
     8     6    76    1
     9     6    77    1
    10     7     9   am
    11     9    10    1
    12    10    11    2
    13    10    43    1
    14    11    14    1
    15    11    15    1
    16    12    13   ar
    17    12    27   ar
    18    12    43    1
    19    13    14    1
    20    13    30   ar
    21    14    17    2
    22    15    16    1
    23    16    17    1
    24    16    18    1
    25    16    22    1
    26    18    19    1
    27    19    20    1
    28    20    21    1
    29    21    22    1
    30    23    24    1
    31    23    88    1
    32    23    89    1
    33    24    25    1
    34    24    26    1
    35    24    90    1
    36    25    91    1
    37    25    92    1
    38    25    93    1
    39    26    94    1
    40    26    95    1
    41    26    96    1
    42    27    28   ar
    43    28    29   ar
    44    29    30   ar
    45    29    31    1
    46    30    33    1
    47    31    32    1
    48    32    33    1
    49    32    35    1
    50    34    97    1
    51    34    98    1
    52    34    99    1
    53    35    61    1
    54    36    37    1
    55    36    60    1
    56    37    38    1
    57    38    39    1
    58    39    40    1
    59    40    41    1
    60    41    42    1
    61    45   100    1
    62    47   101    1
    63    47   102    1
    64    47   103    1
    65    48   104    1
    66    49   105    1
    67    49   106    1
    68    49   107    1
    69    50   108    1
    70    51    59    1
    71    52   109    1
    72    52   110    1
    73    52   111    1
    74    53    54    1
    75    54    55    2
    76    54    56    1
    77    56   112    1
    78    56   113    1
    79    56   114    1
    80    57   115    1
    81    57   116    1
    82    57   117    1
    83    58   118    1
    84    58   119    1
    85    58   120    1
    86    59   121    1
    87    59   122    1
    88    59   123    1
    89    60    61    2
    90     1    47    1
    91     1    62    1
    92     2    63    1
    93     3    64    1
    94     4    65    1
    95     5     6    1
    96     7     8    2
    97     9    78    1
    98    15    79    1
    99    18    80    1
   100    18    81    1
   101    19    82    1
   102    19    83    1
   103    20    23    1
   104    21    84    1
   105    21    85    1
   106    22    86    1
   107    22    87    1
   108    27    45    1
   109    28    34    1
   110    32    58    1
   111    33    46    2
   112    36    51    1
   113    36    66    1
   114    37    52    1
   115    37    67    1
   116    38    53    1
   117    38    68    1
   118    42    48    1
   119    42    72    1
   120    43    44    2
   121    60    73    1
   122    61    74    1
   123    39    69    1
   124    39    57    1
   125    40    70    1
   126    40    50    1
   127    41    71    1
   128    41    49    1
