@<TRIPOS>MOLECULE
*****
 123 128 0 0 0
SMALL
GASTEIGER

@<TRIPOS>ATOM
     1 C         5.166489   1.75049   0.492392 C.3        1 UNL1     0.0009
     2 C         6.603636   2.555599   -0.358163 C.2        1 UNL1     -0.0787
     3 C         7.886011   2.456659   -1.022824 C.2        1 UNL1     -0.0649
     4 C         8.763771   3.690819   -1.779622 C.2        1 UNL1     -0.0542
     5 C         9.784415   3.982255   -2.717933 C.2        1 UNL1     0.0115
     6 C         10.913351   3.355732   -3.581817 C.3        1 UNL1     -0.0348
     7 C         9.879913   5.464623   -3.326582 C.2        1 UNL1     0.2441
     8 O         10.703372   6.286988   -2.949544 O.2        1 UNL1     -0.2702
     9 N         9.130493   5.669703   -4.498104 N.am        1 UNL1     -0.2772
     10 C         7.847481   6.056612   -4.185847 C.2        1 UNL1     0.1049
     11 C         7.001667   5.085477   -3.89307 C.2        1 UNL1     0.0801
     12 C         6.547778   7.665123   -2.778439 C.ar        1 UNL1     0.0753
     13 C         5.78861   6.537735   -2.329812 C.ar        1 UNL1     0.0305
     14 C         5.906247   5.231094   -2.973165 C.2        1 UNL1     0.0924
     15 N         7.124649   3.756286   -4.050088 N.pl3        1 UNL1     -0.3170
     16 C         5.854676   3.157348   -3.735929 C.3        1 UNL1     0.1275
     17 N         5.217395   4.113925   -2.757891 N.2        1 UNL1     -0.2557
     18 C         5.002723   3.214373   -5.000297 C.3        1 UNL1     0.0016
     19 C         5.758541   2.528739   -6.127344 C.3        1 UNL1     0.0026
     20 N         6.028662   1.151265   -5.739235 N.3        1 UNL1     -0.3018
     21 C         6.79116   0.992863   -4.499124 C.3        1 UNL1     0.0026
     22 C         6.011482   1.68491   -3.379718 C.3        1 UNL1     0.0016
     23 C         6.474117   0.330155   -6.847383 C.3        1 UNL1     0.0012
     24 C         5.319423   0.078997   -7.829909 C.3        1 UNL1     -0.0339
     25 C         5.345627   1.08044   -8.996306 C.3        1 UNL1     -0.0615
     26 C         5.359441   -1.356442   -8.324573 C.3        1 UNL1     -0.0615
     27 C         6.342496   8.933583   -2.240864 C.ar        1 UNL1     0.1347
     28 C         5.382699   9.204385   -1.281954 C.ar        1 UNL1     0.0342
     29 C         4.681019   8.070493   -0.82033 C.ar        1 UNL1     0.1435
     30 C         4.901062   6.787753   -1.323698 C.ar        1 UNL1     0.0774
     31 O         3.639396   8.185141   0.032245 O.3        1 UNL1     -0.4436
     32 C         2.918049   6.951975   -0.108587 C.3        1 UNL1     0.3143
     33 C         3.931911   5.958264   -0.638527 C.2        1 UNL1     0.2504
     34 C         4.935292   10.571064   -0.843642 C.3        1 UNL1     -0.0327
     35 O         2.556555   6.517178   1.208048 O.2        1 UNL1     -0.4528
     36 C         -0.685849   4.583795   0.8119 C.3        1 UNL1     0.0854
     37 C         -0.990282   3.32181   -0.083778 C.3        1 UNL1     0.0236
     38 C         -1.591163   2.061837   0.705622 C.3        1 UNL1     0.1131
     39 C         -0.866231   1.53299   2.008337 C.3        1 UNL1     0.0200
     40 C         0.794958   1.387817   2.050902 C.3        1 UNL1     0.0661
     41 C         1.755299   0.617413   0.883926 C.3        1 UNL1     0.0091
     42 C         3.463219   0.979441   0.320589 C.3        1 UNL1     0.0661
     43 C         7.498654   7.455916   -3.898407 C.2        1 UNL1     0.2131
     44 O         7.89888   8.352988   -4.618002 O.2        1 UNL1     -0.2851
     45 O         7.154896   9.968152   -2.700333 O.3        1 UNL1     -0.5056
     46 O         3.94803   4.754931   -0.505929 O.2        1 UNL1     -0.2836
     47 C         5.561912   1.32325   1.931519 C.3        1 UNL1     -0.0566
     48 O         3.911985   -0.431456   0.404815 O.3        1 UNL1     -0.3909
     49 C         0.922033   0.382802   -0.356283 C.3        1 UNL1     -0.0577
     50 O         1.394654   2.60638   2.442298 O.3        1 UNL1     -0.3910
     51 O         -0.810886   4.396192   2.203519 O.3        1 UNL1     -0.3753
     52 C         0.055017   3.159797   -1.235321 C.3        1 UNL1     -0.0564
     53 O         -2.192939   1.021387   -0.193075 O.3        1 UNL1     -0.4608
     54 C         -2.414851   -0.28824   0.143912 C.2        1 UNL1     0.3042
     55 O         -1.841945   -1.281583   -0.302057 O.2        1 UNL1     -0.2512
     56 C         -3.444819   -0.46533   1.223041 C.3        1 UNL1     0.0332
     57 C         -1.588272   2.203751   3.268063 C.3        1 UNL1     -0.0567
     58 C         1.843574   7.195232   -1.193879 C.3        1 UNL1     0.0210
     59 C         -1.155739   5.569876   2.937962 C.3        1 UNL1     0.0372
     60 C         0.643194   5.212775   0.581272 C.2        1 UNL1     -0.0208
     61 C         1.555437   5.649487   1.450662 C.2        1 UNL1     0.0882
     62 H         4.690327   2.734706   0.577839 H        1 UNL1     0.0365
     63 H         6.337122   3.609507   -0.254638 H        1 UNL1     0.0576
     64 H         8.343997   1.489561   -1.242089 H        1 UNL1     0.0615
     65 H         8.276277   4.606649   -1.434529 H        1 UNL1     0.0622
     66 H         -1.430417   5.329716   0.500027 H        1 UNL1     0.0645
     67 H         -1.855457   3.630093   -0.696145 H        1 UNL1     0.0362
     68 H         -2.53856   2.49907   1.056034 H        1 UNL1     0.0741
     69 H         -1.197707   0.522128   2.205034 H        1 UNL1     0.0359
     70 H         0.906236   0.72884   2.933187 H        1 UNL1     0.0600
     71 H         1.798768   -0.403098   1.312442 H        1 UNL1     0.0348
     72 H         3.356562   1.469108   1.299448 H        1 UNL1     0.0602
     73 H         0.76178   5.408477   -0.455496 H        1 UNL1     0.0628
     74 H         1.53718   5.440439   2.520804 H        1 UNL1     0.1022
     75 H         10.957925   2.250694   -3.427096 H        1 UNL1     0.0279
     76 H         10.800458   3.436867   -4.660586 H        1 UNL1     0.0279
     77 H         11.918142   3.661114   -3.254956 H        1 UNL1     0.0279
     78 H         9.069017   4.798949   -5.021636 H        1 UNL1     0.1553
     79 H         7.790428   3.327482   -4.666365 H        1 UNL1     0.1484
     80 H         4.041395   2.723559   -4.806091 H        1 UNL1     0.0317
     81 H         4.776117   4.250673   -5.273029 H        1 UNL1     0.0317
     82 H         6.689281   3.059834   -6.375485 H        1 UNL1     0.0428
     83 H         5.134002   2.582416   -7.0196 H        1 UNL1     0.0428
     84 H         6.911453   -0.049597   -4.18829 H        1 UNL1     0.0428
     85 H         7.821258   1.360926   -4.60278 H        1 UNL1     0.0428
     86 H         6.527316   1.436018   -2.470897 H        1 UNL1     0.0317
     87 H         5.032037   1.207285   -3.254589 H        1 UNL1     0.0317
     88 H         7.270451   0.871296   -7.374938 H        1 UNL1     0.0429
     89 H         6.906639   -0.615006   -6.49472 H        1 UNL1     0.0429
     90 H         4.366171   0.186339   -7.298871 H        1 UNL1     0.0308
     91 H         6.296118   1.037065   -9.536481 H        1 UNL1     0.0233
     92 H         4.527716   0.883193   -9.693246 H        1 UNL1     0.0233
     93 H         5.217766   2.116526   -8.660132 H        1 UNL1     0.0233
     94 H         4.663769   -1.487416   -9.160469 H        1 UNL1     0.0233
     95 H         6.364106   -1.601076   -8.680613 H        1 UNL1     0.0233
     96 H         5.084646   -2.059128   -7.532937 H        1 UNL1     0.0233
     97 H         4.141446   10.522264   -0.104279 H        1 UNL1     0.0280
     98 H         5.747613   11.141967   -0.375175 H        1 UNL1     0.0280
     99 H         4.562118   11.134206   -1.71468 H        1 UNL1     0.0280
     100 H         6.687954   10.718186   -3.024427 H        1 UNL1     0.2922
     101 H         4.698826   0.890221   2.436716 H        1 UNL1     0.0236
     102 H         6.012142   2.129557   2.509572 H        1 UNL1     0.0236
     103 H         6.318309   0.520718   1.932168 H        1 UNL1     0.0236
     104 H         4.330933   -0.556038   1.278847 H        1 UNL1     0.2098
     105 H         0.709621   1.280721   -0.931118 H        1 UNL1     0.0234
     106 H         1.292023   -0.406149   -1.010951 H        1 UNL1     0.0234
     107 H         0.0   -0.0   0.0 H        1 UNL1     0.0234
     108 H         1.196467   3.263539   1.74758 H        1 UNL1     0.2098
     109 H         1.079608   3.04709   -0.854239 H        1 UNL1     0.0234
     110 H         -0.1768   2.33162   -1.913648 H        1 UNL1     0.0234
     111 H         0.076501   4.041619   -1.889442 H        1 UNL1     0.0234
     112 H         -3.567553   -1.528826   1.449446 H        1 UNL1     0.0342
     113 H         -3.198472   0.099393   2.120952 H        1 UNL1     0.0342
     114 H         -4.405366   -0.088288   0.845745 H        1 UNL1     0.0342
     115 H         -2.65242   1.935206   3.319647 H        1 UNL1     0.0234
     116 H         -1.13735   1.944753   4.228083 H        1 UNL1     0.0234
     117 H         -1.648901   3.303941   3.206042 H        1 UNL1     0.0234
     118 H         0.942124   7.682599   -0.782944 H        1 UNL1     0.0309
     119 H         2.213424   7.781994   -2.040711 H        1 UNL1     0.0309
     120 H         1.455472   6.262554   -1.617664 H        1 UNL1     0.0309
     121 H         -0.351547   6.292375   2.801477 H        1 UNL1     0.0524
     122 H         -2.085731   6.034994   2.570786 H        1 UNL1     0.0524
     123 H         -1.272113   5.333167   3.991774 H        1 UNL1     0.0524
@<TRIPOS>BOND
     1     1     2    1
     2     1    42    1
     3     2     3    2
     4     3     4    1
     5     4     5    2
     6     5     7    1
     7     6    75    1
     8     6    76    1
     9     6    77    1
    10     7     9   am
    11     9    10    1
    12    10    11    2
    13    10    43    1
    14    11    14    1
    15    11    15    1
    16    12    13   ar
    17    12    27   ar
    18    12    43    1
    19    13    14    1
    20    13    30   ar
    21    14    17    2
    22    15    16    1
    23    16    17    1
    24    16    18    1
    25    16    22    1
    26    18    19    1
    27    19    20    1
    28    20    21    1
    29    21    22    1
    30    23    24    1
    31    23    88    1
    32    23    89    1
    33    24    25    1
    34    24    26    1
    35    24    90    1
    36    25    91    1
    37    25    92    1
    38    25    93    1
    39    26    94    1
    40    26    95    1
    41    26    96    1
    42    27    28   ar
    43    28    29   ar
    44    29    30   ar
    45    29    31    1
    46    30    33    1
    47    31    32    1
    48    32    33    1
    49    32    35    1
    50    34    97    1
    51    34    98    1
    52    34    99    1
    53    35    61    1
    54    36    37    1
    55    36    60    1
    56    37    38    1
    57    38    39    1
    58    39    40    1
    59    40    41    1
    60    41    42    1
    61    45   100    1
    62    47   101    1
    63    47   102    1
    64    47   103    1
    65    48   104    1
    66    49   105    1
    67    49   106    1
    68    49   107    1
    69    50   108    1
    70    51    59    1
    71    52   109    1
    72    52   110    1
    73    52   111    1
    74    53    54    1
    75    54    55    2
    76    54    56    1
    77    56   112    1
    78    56   113    1
    79    56   114    1
    80    57   115    1
    81    57   116    1
    82    57   117    1
    83    58   118    1
    84    58   119    1
    85    58   120    1
    86    59   121    1
    87    59   122    1
    88    59   123    1
    89    60    61    2
    90     1    47    1
    91     1    62    1
    92     2    63    1
    93     3    64    1
    94     4    65    1
    95     5     6    1
    96     7     8    2
    97     9    78    1
    98    15    79    1
    99    18    80    1
   100    18    81    1
   101    19    82    1
   102    19    83    1
   103    20    23    1
   104    21    84    1
   105    21    85    1
   106    22    86    1
   107    22    87    1
   108    27    45    1
   109    28    34    1
   110    32    58    1
   111    33    46    2
   112    36    51    1
   113    36    66    1
   114    37    52    1
   115    37    67    1
   116    38    53    1
   117    38    68    1
   118    42    48    1
   119    42    72    1
   120    43    44    2
   121    60    73    1
   122    61    74    1
   123    39    69    1
   124    39    57    1
   125    40    70    1
   126    40    50    1
   127    41    71    1
   128    41    49    1
