@<TRIPOS>MOLECULE
*****
 123 128 0 0 0
SMALL
GASTEIGER

@<TRIPOS>ATOM
     1 C         -0.535222   1.611261   -5.113107 C.3        1 UNL1     0.0009
     2 C         -1.795863   2.04875   -6.400129 C.2        1 UNL1     -0.0787
     3 C         -2.479561   1.750831   -7.641035 C.2        1 UNL1     -0.0649
     4 C         -3.785782   2.575858   -8.333476 C.2        1 UNL1     -0.0542
     5 C         -4.857355   2.487593   -9.255983 C.2        1 UNL1     0.0115
     6 C         -5.472793   1.619563   -10.387832 C.3        1 UNL1     -0.0348
     7 C         -6.058475   3.547854   -9.155261 C.2        1 UNL1     0.2441
     8 O         -6.16602   4.50514   -9.909292 O.2        1 UNL1     -0.2702
     9 N         -7.117236   3.16041   -8.315581 N.am        1 UNL1     -0.2772
     10 C         -6.874138   3.558972   -7.021219 C.2        1 UNL1     0.1049
     11 C         -6.100747   2.764891   -6.303219 C.2        1 UNL1     0.0801
     12 C         -6.1841   5.534351   -5.650431 C.ar        1 UNL1     0.0753
     13 C         -5.212188   4.67572   -5.044835 C.ar        1 UNL1     0.0305
     14 C         -5.228721   3.230426   -5.259082 C.2        1 UNL1     0.0924
     15 N         -5.673385   1.515893   -6.555992 N.pl3        1 UNL1     -0.3170
     16 C         -4.999443   1.035447   -5.379035 C.3        1 UNL1     0.1275
     17 N         -4.477091   2.281946   -4.707388 N.2        1 UNL1     -0.2557
     18 C         -6.065893   0.467622   -4.44739 C.3        1 UNL1     0.0016
     19 C         -6.852006   -0.595103   -5.198544 C.3        1 UNL1     0.0026
     20 N         -5.931676   -1.635185   -5.637006 N.3        1 UNL1     -0.3018
     21 C         -4.83336   -1.174689   -6.489071 C.3        1 UNL1     0.0026
     22 C         -4.054402   -0.111227   -5.713077 C.3        1 UNL1     0.0016
     23 C         -6.609566   -2.831305   -6.095705 C.3        1 UNL1     0.0012
     24 C         -7.019343   -2.686432   -7.569765 C.3        1 UNL1     -0.0339
     25 C         -6.223241   -3.644117   -8.471496 C.3        1 UNL1     -0.0615
     26 C         -8.51655   -2.894937   -7.716991 C.3        1 UNL1     -0.0615
     27 C         -6.236335   6.892675   -5.346543 C.ar        1 UNL1     0.1347
     28 C         -5.398179   7.49645   -4.426217 C.ar        1 UNL1     0.0342
     29 C         -4.417771   6.641629   -3.879182 C.ar        1 UNL1     0.1435
     30 C         -4.330264   5.286734   -4.201398 C.ar        1 UNL1     0.0774
     31 O         -3.597967   7.05318   -2.88744 O.3        1 UNL1     -0.4436
     32 C         -3.11054   5.840676   -2.293198 C.3        1 UNL1     0.3143
     33 C         -3.255286   4.78529   -3.37089 C.2        1 UNL1     0.2504
     34 C         -5.556905   8.882217   -3.865365 C.3        1 UNL1     -0.0327
     35 O         -1.70662   6.013056   -2.063967 O.2        1 UNL1     -0.4528
     36 C         -0.880221   3.892907   0.974144 C.3        1 UNL1     0.0854
     37 C         -1.097981   2.34716   1.199468 C.3        1 UNL1     0.0236
     38 C         0.219942   1.53208   1.612347 C.3        1 UNL1     0.1131
     39 C         1.53986   1.686933   0.754381 C.3        1 UNL1     0.0200
     40 C         1.469074   1.687281   -0.912181 C.3        1 UNL1     0.0661
     41 C         0.663092   0.544767   -1.872735 C.3        1 UNL1     0.0091
     42 C         -0.175471   0.73215   -3.493569 C.3        1 UNL1     0.0661
     43 C         -7.192154   4.913447   -6.545174 C.2        1 UNL1     0.2131
     44 O         -8.268425   5.421913   -6.801767 O.2        1 UNL1     -0.2851
     45 O         -7.182922   7.667127   -6.014101 O.3        1 UNL1     -0.5056
     46 O         -2.612997   3.770261   -3.522659 O.2        1 UNL1     -0.2836
     47 C         0.89639   1.895453   -5.641976 C.3        1 UNL1     -0.0566
     48 O         0.469377   -0.46086   -4.093581 O.3        1 UNL1     -0.3909
     49 C         -0.256355   -0.271612   -0.992033 C.3        1 UNL1     -0.0577
     50 O         1.224546   2.98993   -1.403133 O.3        1 UNL1     -0.3910
     51 O         0.458249   4.335257   0.990135 O.3        1 UNL1     -0.3753
     52 C         -2.164649   1.760705   0.21802 C.3        1 UNL1     -0.0564
     53 O         -0.066431   0.163013   2.15638 O.3        1 UNL1     -0.4608
     54 C         0.823526   -0.878225   2.197973 C.2        1 UNL1     0.3042
     55 O         0.968145   -1.701506   3.10082 O.2        1 UNL1     -0.2512
     56 C         1.650198   -1.012971   0.950908 C.3        1 UNL1     0.0332
     57 C         2.447533   2.797581   1.462029 C.3        1 UNL1     -0.0567
     58 C         -4.075217   5.503906   -1.132373 C.3        1 UNL1     0.0210
     59 C         0.635217   5.720594   0.697916 C.3        1 UNL1     0.0372
     60 C         -1.49876   4.441257   -0.263548 C.2        1 UNL1     -0.0208
     61 C         -1.007127   5.278712   -1.17772 C.2        1 UNL1     0.0882
     62 H         -0.839285   2.496641   -4.541828 H        1 UNL1     0.0365
     63 H         -2.135937   3.018449   -6.030666 H        1 UNL1     0.0576
     64 H         -2.300672   0.82007   -8.183981 H        1 UNL1     0.0615
     65 H         -3.826781   3.51475   -7.774653 H        1 UNL1     0.0622
     66 H         -1.407455   4.370912   1.811748 H        1 UNL1     0.0645
     67 H         -1.690134   2.29261   2.129489 H        1 UNL1     0.0362
     68 H         0.440366   2.015006   2.576565 H        1 UNL1     0.0741
     69 H         2.191418   0.849079   0.963859 H        1 UNL1     0.0359
     70 H         2.53373   1.498026   -1.148297 H        1 UNL1     0.0600
     71 H         1.487152   -0.173624   -2.051056 H        1 UNL1     0.0348
     72 H         0.496493   1.597389   -3.397962 H        1 UNL1     0.0602
     73 H         -2.522994   4.163376   -0.294778 H        1 UNL1     0.0628
     74 H         0.042358   5.566211   -1.249581 H        1 UNL1     0.1022
     75 H         -4.869955   1.710523   -11.323432 H        1 UNL1     0.0279
     76 H         -5.48681   0.544718   -10.221756 H        1 UNL1     0.0279
     77 H         -6.451996   1.990944   -10.723897 H        1 UNL1     0.0279
     78 H         -7.198467   2.145779   -8.313545 H        1 UNL1     0.1553
     79 H         -6.105879   0.903531   -7.222996 H        1 UNL1     0.1484
     80 H         -5.578356   0.051121   -3.557671 H        1 UNL1     0.0317
     81 H         -6.738649   1.257084   -4.095537 H        1 UNL1     0.0317
     82 H         -7.402159   -0.168626   -6.050226 H        1 UNL1     0.0428
     83 H         -7.608042   -0.985369   -4.516522 H        1 UNL1     0.0428
     84 H         -4.112844   -1.959837   -6.738491 H        1 UNL1     0.0428
     85 H         -5.193506   -0.823018   -7.465769 H        1 UNL1     0.0428
     86 H         -3.187048   0.104729   -6.308936 H        1 UNL1     0.0317
     87 H         -3.632475   -0.547849   -4.799602 H        1 UNL1     0.0317
     88 H         -5.911645   -3.674242   -6.008201 H        1 UNL1     0.0429
     89 H         -7.476789   -3.064962   -5.464751 H        1 UNL1     0.0429
     90 H         -6.826606   -1.657759   -7.896717 H        1 UNL1     0.0308
     91 H         -5.85819   -4.508733   -7.909109 H        1 UNL1     0.0233
     92 H         -6.838906   -3.99193   -9.304317 H        1 UNL1     0.0233
     93 H         -5.345748   -3.162823   -8.920047 H        1 UNL1     0.0233
     94 H         -8.800902   -2.857894   -8.77416 H        1 UNL1     0.0233
     95 H         -8.797169   -3.877199   -7.326634 H        1 UNL1     0.0233
     96 H         -9.081033   -2.12735   -7.180207 H        1 UNL1     0.0233
     97 H         -6.599766   9.177226   -3.797242 H        1 UNL1     0.0280
     98 H         -5.153954   8.965382   -2.847539 H        1 UNL1     0.0280
     99 H         -5.035024   9.604824   -4.513882 H        1 UNL1     0.0280
     100 H         -7.444397   7.329192   -6.852584 H        1 UNL1     0.2922
     101 H         1.631535   1.568388   -4.906961 H        1 UNL1     0.0236
     102 H         1.04635   2.933631   -5.936394 H        1 UNL1     0.0236
     103 H         1.126955   1.310339   -6.547887 H        1 UNL1     0.0236
     104 H         1.307298   -0.168731   -4.502872 H        1 UNL1     0.2098
     105 H         -1.314069   -0.062739   -1.131403 H        1 UNL1     0.0234
     106 H         -0.076789   -1.346307   -1.018756 H        1 UNL1     0.0234
     107 H         0.0   0.0   0.0 H        1 UNL1     0.0234
     108 H         0.900185   2.898348   -2.319741 H        1 UNL1     0.2098
     109 H         -1.881432   1.898479   -0.834842 H        1 UNL1     0.0234
     110 H         -2.384649   0.703761   0.402989 H        1 UNL1     0.0234
     111 H         -3.136668   2.25884   0.331982 H        1 UNL1     0.0234
     112 H         1.266007   -0.343216   0.175556 H        1 UNL1     0.0342
     113 H         2.706945   -0.828374   1.138134 H        1 UNL1     0.0342
     114 H         1.552275   -2.044003   0.584099 H        1 UNL1     0.0342
     115 H         2.602824   2.579815   2.527698 H        1 UNL1     0.0234
     116 H         3.431448   2.92346   1.005832 H        1 UNL1     0.0234
     117 H         1.967276   3.789792   1.515064 H        1 UNL1     0.0234
     118 H         -3.949009   6.189561   -0.276245 H        1 UNL1     0.0309
     119 H         -5.127034   5.499245   -1.435462 H        1 UNL1     0.0309
     120 H         -3.88076   4.517674   -0.696897 H        1 UNL1     0.0309
     121 H         0.458496   6.276836   1.618091 H        1 UNL1     0.0524
     122 H         1.660581   5.94989   0.363119 H        1 UNL1     0.0524
     123 H         -0.065222   6.035074   -0.070577 H        1 UNL1     0.0524
@<TRIPOS>BOND
     1     1     2    1
     2     1    42    1
     3     2     3    2
     4     3     4    1
     5     4     5    2
     6     5     7    1
     7     6    75    1
     8     6    76    1
     9     6    77    1
    10     7     9   am
    11     9    10    1
    12    10    11    2
    13    10    43    1
    14    11    14    1
    15    11    15    1
    16    12    13   ar
    17    12    27   ar
    18    12    43    1
    19    13    14    1
    20    13    30   ar
    21    14    17    2
    22    15    16    1
    23    16    17    1
    24    16    18    1
    25    16    22    1
    26    18    19    1
    27    19    20    1
    28    20    21    1
    29    21    22    1
    30    23    24    1
    31    23    88    1
    32    23    89    1
    33    24    25    1
    34    24    26    1
    35    24    90    1
    36    25    91    1
    37    25    92    1
    38    25    93    1
    39    26    94    1
    40    26    95    1
    41    26    96    1
    42    27    28   ar
    43    28    29   ar
    44    29    30   ar
    45    29    31    1
    46    30    33    1
    47    31    32    1
    48    32    33    1
    49    32    35    1
    50    34    97    1
    51    34    98    1
    52    34    99    1
    53    35    61    1
    54    36    37    1
    55    36    60    1
    56    37    38    1
    57    38    39    1
    58    39    40    1
    59    40    41    1
    60    41    42    1
    61    45   100    1
    62    47   101    1
    63    47   102    1
    64    47   103    1
    65    48   104    1
    66    49   105    1
    67    49   106    1
    68    49   107    1
    69    50   108    1
    70    51    59    1
    71    52   109    1
    72    52   110    1
    73    52   111    1
    74    53    54    1
    75    54    55    2
    76    54    56    1
    77    56   112    1
    78    56   113    1
    79    56   114    1
    80    57   115    1
    81    57   116    1
    82    57   117    1
    83    58   118    1
    84    58   119    1
    85    58   120    1
    86    59   121    1
    87    59   122    1
    88    59   123    1
    89    60    61    2
    90     1    47    1
    91     1    62    1
    92     2    63    1
    93     3    64    1
    94     4    65    1
    95     5     6    1
    96     7     8    2
    97     9    78    1
    98    15    79    1
    99    18    80    1
   100    18    81    1
   101    19    82    1
   102    19    83    1
   103    20    23    1
   104    21    84    1
   105    21    85    1
   106    22    86    1
   107    22    87    1
   108    27    45    1
   109    28    34    1
   110    32    58    1
   111    33    46    2
   112    36    51    1
   113    36    66    1
   114    37    52    1
   115    37    67    1
   116    38    53    1
   117    38    68    1
   118    42    48    1
   119    42    72    1
   120    43    44    2
   121    60    73    1
   122    61    74    1
   123    39    69    1
   124    39    57    1
   125    40    70    1
   126    40    50    1
   127    41    71    1
   128    41    49    1
