@<TRIPOS>MOLECULE
*****
 123 128 0 0 0
SMALL
GASTEIGER

@<TRIPOS>ATOM
     1 C         2.603117   2.616322   3.925398 C.3        1 UNL1     0.0009
     2 C         3.830518   2.383113   5.29512 C.2        1 UNL1     -0.0787
     3 C         4.141589   2.335026   6.708261 C.2        1 UNL1     -0.0649
     4 C         5.609752   1.910514   7.436714 C.2        1 UNL1     -0.0542
     5 C         6.227558   1.469246   8.632823 C.2        1 UNL1     0.0115
     6 C         5.997919   1.225083   10.149719 C.3        1 UNL1     -0.0348
     7 C         7.695878   0.824849   8.556826 C.2        1 UNL1     0.2441
     8 O         8.708282   1.437432   8.867158 O.2        1 UNL1     -0.2702
     9 N         7.718821   -0.567012   8.361 N.am        1 UNL1     -0.2772
     10 C         7.696961   -0.863344   7.017485 C.2        1 UNL1     0.1049
     11 C         6.508396   -0.867822   6.441711 C.2        1 UNL1     0.0801
     12 C         8.791329   -0.291425   4.842031 C.ar        1 UNL1     0.0753
     13 C         7.472742   -0.104425   4.317658 C.ar        1 UNL1     0.0305
     14 C         6.286523   -0.514859   5.065642 C.2        1 UNL1     0.0924
     15 N         5.282225   -0.835447   6.991241 N.pl3        1 UNL1     -0.3170
     16 C         4.323005   -1.0341   5.93735 C.3        1 UNL1     0.1275
     17 N         5.008026   -0.509462   4.699115 N.2        1 UNL1     -0.2557
     18 C         4.178189   -2.53943   5.735582 C.3        1 UNL1     0.0016
     19 C         3.792906   -3.173165   7.062807 C.3        1 UNL1     0.0026
     20 N         2.541617   -2.582673   7.517367 N.3        1 UNL1     -0.3018
     21 C         2.564271   -1.127727   7.681642 C.3        1 UNL1     0.0026
     22 C         2.948953   -0.511557   6.335444 C.3        1 UNL1     0.0016
     23 C         1.934697   -3.318137   8.608873 C.3        1 UNL1     0.0012
     24 C         1.394805   -4.66906   8.113614 C.3        1 UNL1     -0.0339
     25 C         0.118559   -5.075541   8.868615 C.3        1 UNL1     -0.0615
     26 C         1.164817   -4.619495   6.613138 C.3        1 UNL1     -0.0615
     27 C         9.919602   -0.009908   4.075306 C.ar        1 UNL1     0.1347
     28 C         9.855629   0.424068   2.763199 C.ar        1 UNL1     0.0342
     29 C         8.547253   0.647685   2.284335 C.ar        1 UNL1     0.1435
     30 C         7.408294   0.404559   3.053025 C.ar        1 UNL1     0.0774
     31 O         8.314449   0.965526   0.992133 O.3        1 UNL1     -0.4436
     32 C         6.930279   0.646764   0.783963 C.3        1 UNL1     0.3143
     33 C         6.302438   0.68873   2.162465 C.2        1 UNL1     0.2504
     34 C         11.010341   0.504726   1.803911 C.3        1 UNL1     -0.0327
     35 O         6.354449   1.720922   0.030401 O.2        1 UNL1     -0.4528
     36 C         3.568831   0.170494   -2.029841 C.3        1 UNL1     0.0854
     37 C         2.311146   -0.649954   -1.547539 C.3        1 UNL1     0.0236
     38 C         0.898654   -0.076635   -2.045452 C.3        1 UNL1     0.1131
     39 C         0.554014   1.452863   -1.835387 C.3        1 UNL1     0.0200
     40 C         0.903581   2.206789   -0.389069 C.3        1 UNL1     0.0661
     41 C         0.499333   1.631289   1.154626 C.3        1 UNL1     0.0091
     42 C         1.371794   1.812151   2.758217 C.3        1 UNL1     0.0661
     43 C         8.918096   -0.880033   6.198397 C.2        1 UNL1     0.2131
     44 O         9.922101   -1.441942   6.597107 O.2        1 UNL1     -0.2851
     45 O         11.165724   -0.175665   4.676256 O.3        1 UNL1     -0.5056
     46 O         5.15299   0.9255   2.460058 O.2        1 UNL1     -0.2836
     47 C         2.252688   4.120196   3.765573 C.3        1 UNL1     -0.0566
     48 O         0.15378   2.207246   3.506186 O.3        1 UNL1     -0.3909
     49 C         0.080628   0.182397   1.041081 C.3        1 UNL1     -0.0577
     50 O         2.227631   2.701375   -0.388904 O.3        1 UNL1     -0.3910
     51 O         3.295633   1.389534   -2.68309 O.3        1 UNL1     -0.3753
     52 C         2.512112   -1.231445   -0.11003 C.3        1 UNL1     -0.0564
     53 O         -0.235111   -1.045826   -1.879407 O.3        1 UNL1     -0.4608
     54 C         -1.558695   -0.766198   -2.098183 C.2        1 UNL1     0.3042
     55 O         -2.354716   -1.408735   -2.781802 O.2        1 UNL1     -0.2512
     56 C         -2.050178   0.440129   -1.349897 C.3        1 UNL1     0.0332
     57 C         0.929602   2.221865   -3.186588 C.3        1 UNL1     -0.0567
     58 C         6.890258   -0.808265   0.261641 C.3        1 UNL1     0.0210
     59 C         4.299344   1.814131   -3.604039 C.3        1 UNL1     0.0372
     60 C         4.570717   0.466672   -0.96981 C.2        1 UNL1     -0.0208
     61 C         5.220897   1.596075   -0.686162 C.2        1 UNL1     0.0882
     62 H         3.398748   2.401773   3.20176 H        1 UNL1     0.0365
     63 H         4.753764   2.267092   4.723608 H        1 UNL1     0.0576
     64 H         3.362443   2.419672   7.469099 H        1 UNL1     0.0615
     65 H         6.326079   1.931545   6.610931 H        1 UNL1     0.0622
     66 H         4.074161   -0.49388   -2.744891 H        1 UNL1     0.0645
     67 H         2.375477   -1.596083   -2.112571 H        1 UNL1     0.0362
     68 H         1.022245   -0.20131   -3.132054 H        1 UNL1     0.0741
     69 H         -0.51684   1.582829   -1.917783 H        1 UNL1     0.0359
     70 H         0.271029   3.109759   -0.486959 H        1 UNL1     0.0600
     71 H         -0.479689   2.129648   1.296441 H        1 UNL1     0.0348
     72 H         1.767539   2.604677   2.1066 H        1 UNL1     0.0602
     73 H         4.835151   -0.435905   -0.477186 H        1 UNL1     0.0628
     74 H         4.971938   2.572379   -1.103401 H        1 UNL1     0.1022
     75 H         5.493074   2.105064   10.616409 H        1 UNL1     0.0279
     76 H         5.332795   0.406048   10.414031 H        1 UNL1     0.0279
     77 H         6.936922   1.185671   10.721052 H        1 UNL1     0.0279
     78 H         6.890966   -0.985124   8.780423 H        1 UNL1     0.1553
     79 H         5.094563   -1.070297   7.948614 H        1 UNL1     0.1484
     80 H         3.418144   -2.72568   4.967201 H        1 UNL1     0.0317
     81 H         5.111868   -2.9762   5.365276 H        1 UNL1     0.0317
     82 H         4.584602   -3.052168   7.81679 H        1 UNL1     0.0428
     83 H         3.696659   -4.246557   6.89663 H        1 UNL1     0.0428
     84 H         1.591791   -0.700981   7.946182 H        1 UNL1     0.0428
     85 H         3.22369   -0.819504   8.504735 H        1 UNL1     0.0428
     86 H         2.826102   0.54873   6.456636 H        1 UNL1     0.0317
     87 H         2.198997   -0.768955   5.577546 H        1 UNL1     0.0317
     88 H         2.707836   -3.5068   9.365151 H        1 UNL1     0.0429
     89 H         1.145463   -2.730618   9.095396 H        1 UNL1     0.0429
     90 H         2.156566   -5.441095   8.274531 H        1 UNL1     0.0308
     91 H         -0.583199   -4.239374   8.942518 H        1 UNL1     0.0233
     92 H         -0.374027   -5.914249   8.371085 H        1 UNL1     0.0233
     93 H         0.327081   -5.407332   9.892954 H        1 UNL1     0.0233
     94 H         0.445034   -5.389743   6.315706 H        1 UNL1     0.0233
     95 H         0.75357   -3.646491   6.330113 H        1 UNL1     0.0233
     96 H         2.094564   -4.783794   6.061282 H        1 UNL1     0.0233
     97 H         10.688952   0.768201   0.800656 H        1 UNL1     0.0280
     98 H         11.739151   1.271612   2.097131 H        1 UNL1     0.0280
     99 H         11.520922   -0.471135   1.758102 H        1 UNL1     0.0280
     100 H         11.249412   0.228517   5.521984 H        1 UNL1     0.2922
     101 H         2.754555   4.523211   2.886162 H        1 UNL1     0.0236
     102 H         2.461179   4.706314   4.65999 H        1 UNL1     0.0236
     103 H         1.178504   4.276723   3.571094 H        1 UNL1     0.0236
     104 H         -0.373257   1.398782   3.659775 H        1 UNL1     0.2098
     105 H         0.798016   -0.525637   1.448332 H        1 UNL1     0.0234
     106 H         -0.918983   -0.033611   1.417971 H        1 UNL1     0.0234
     107 H         -0.0   0.0   0.0 H        1 UNL1     0.0234
     108 H         2.526107   2.731048   0.540505 H        1 UNL1     0.2098
     109 H         3.54456   -1.111174   0.246755 H        1 UNL1     0.0234
     110 H         1.81875   -0.809782   0.625628 H        1 UNL1     0.0234
     111 H         2.310375   -2.310439   -0.078061 H        1 UNL1     0.0234
     112 H         -3.130645   0.547521   -1.485558 H        1 UNL1     0.0342
     113 H         -1.791191   0.400014   -0.292939 H        1 UNL1     0.0342
     114 H         -1.567031   1.32946   -1.777477 H        1 UNL1     0.0342
     115 H         1.491752   1.58016   -3.878969 H        1 UNL1     0.0234
     116 H         0.066799   2.613509   -3.729022 H        1 UNL1     0.0234
     117 H         1.642934   3.050619   -3.037371 H        1 UNL1     0.0234
     118 H         6.669053   -0.854886   -0.819053 H        1 UNL1     0.0309
     119 H         7.812599   -1.362417   0.462654 H        1 UNL1     0.0309
     120 H         6.080646   -1.393947   0.710653 H        1 UNL1     0.0309
     121 H         4.228098   1.177915   -4.485805 H        1 UNL1     0.0524
     122 H         4.151011   2.855986   -3.933544 H        1 UNL1     0.0524
     123 H         5.284253   1.723239   -3.154832 H        1 UNL1     0.0524
@<TRIPOS>BOND
     1     1     2    1
     2     1    42    1
     3     2     3    2
     4     3     4    1
     5     4     5    2
     6     5     7    1
     7     6    75    1
     8     6    76    1
     9     6    77    1
    10     7     9   am
    11     9    10    1
    12    10    11    2
    13    10    43    1
    14    11    14    1
    15    11    15    1
    16    12    13   ar
    17    12    27   ar
    18    12    43    1
    19    13    14    1
    20    13    30   ar
    21    14    17    2
    22    15    16    1
    23    16    17    1
    24    16    18    1
    25    16    22    1
    26    18    19    1
    27    19    20    1
    28    20    21    1
    29    21    22    1
    30    23    24    1
    31    23    88    1
    32    23    89    1
    33    24    25    1
    34    24    26    1
    35    24    90    1
    36    25    91    1
    37    25    92    1
    38    25    93    1
    39    26    94    1
    40    26    95    1
    41    26    96    1
    42    27    28   ar
    43    28    29   ar
    44    29    30   ar
    45    29    31    1
    46    30    33    1
    47    31    32    1
    48    32    33    1
    49    32    35    1
    50    34    97    1
    51    34    98    1
    52    34    99    1
    53    35    61    1
    54    36    37    1
    55    36    60    1
    56    37    38    1
    57    38    39    1
    58    39    40    1
    59    40    41    1
    60    41    42    1
    61    45   100    1
    62    47   101    1
    63    47   102    1
    64    47   103    1
    65    48   104    1
    66    49   105    1
    67    49   106    1
    68    49   107    1
    69    50   108    1
    70    51    59    1
    71    52   109    1
    72    52   110    1
    73    52   111    1
    74    53    54    1
    75    54    55    2
    76    54    56    1
    77    56   112    1
    78    56   113    1
    79    56   114    1
    80    57   115    1
    81    57   116    1
    82    57   117    1
    83    58   118    1
    84    58   119    1
    85    58   120    1
    86    59   121    1
    87    59   122    1
    88    59   123    1
    89    60    61    2
    90     1    47    1
    91     1    62    1
    92     2    63    1
    93     3    64    1
    94     4    65    1
    95     5     6    1
    96     7     8    2
    97     9    78    1
    98    15    79    1
    99    18    80    1
   100    18    81    1
   101    19    82    1
   102    19    83    1
   103    20    23    1
   104    21    84    1
   105    21    85    1
   106    22    86    1
   107    22    87    1
   108    27    45    1
   109    28    34    1
   110    32    58    1
   111    33    46    2
   112    36    51    1
   113    36    66    1
   114    37    52    1
   115    37    67    1
   116    38    53    1
   117    38    68    1
   118    42    48    1
   119    42    72    1
   120    43    44    2
   121    60    73    1
   122    61    74    1
   123    39    69    1
   124    39    57    1
   125    40    70    1
   126    40    50    1
   127    41    71    1
   128    41    49    1
