@<TRIPOS>MOLECULE
*****
 123 128 0 0 0
SMALL
GASTEIGER

@<TRIPOS>ATOM
     1 C         -0.009191   -2.620003   4.319897 C.3        1 UNL1     0.0009
     2 C         -0.530134   -4.244206   5.046274 C.2        1 UNL1     -0.0787
     3 C         -1.553051   -5.093643   5.619111 C.2        1 UNL1     -0.0649
     4 C         -1.432511   -6.729438   6.038638 C.2        1 UNL1     -0.0542
     5 C         -2.158787   -7.916303   6.305004 C.2        1 UNL1     0.0115
     6 C         -3.580996   -8.490634   6.551558 C.3        1 UNL1     -0.0348
     7 C         -1.391975   -9.325492   6.248642 C.2        1 UNL1     0.2441
     8 O         -1.036412   -9.930123   7.2509 O.2        1 UNL1     -0.2702
     9 N         -1.38764   -9.943576   4.986063 N.am        1 UNL1     -0.2772
     10 C         -0.311339   -9.513431   4.244529 C.2        1 UNL1     0.1049
     11 C         -0.463573   -8.365528   3.609418 C.2        1 UNL1     0.0801
     12 C         2.163521   -9.167304   4.356763 C.ar        1 UNL1     0.0753
     13 C         1.922585   -7.847332   3.858534 C.ar        1 UNL1     0.0305
     14 C         0.613497   -7.450481   3.344872 C.2        1 UNL1     0.0924
     15 N         -1.573195   -7.638609   3.392955 N.pl3        1 UNL1     -0.3170
     16 C         -1.226948   -6.562788   2.502463 C.3        1 UNL1     0.1275
     17 N         0.239398   -6.315827   2.76046 N.2        1 UNL1     -0.2557
     18 C         -1.321077   -7.105453   1.079664 C.3        1 UNL1     0.0016
     19 C         -2.715589   -7.672531   0.866713 C.3        1 UNL1     0.0026
     20 N         -3.690218   -6.61344   1.089093 N.3        1 UNL1     -0.3018
     21 C         -3.63605   -5.986268   2.411247 C.3        1 UNL1     0.0026
     22 C         -2.228146   -5.419447   2.602076 C.3        1 UNL1     0.0016
     23 C         -5.01814   -6.962531   0.624978 C.3        1 UNL1     0.0012
     24 C         -5.97631   -5.772281   0.789206 C.3        1 UNL1     -0.0339
     25 C         -5.453783   -4.76926   1.830826 C.3        1 UNL1     -0.0615
     26 C         -6.216609   -5.107815   -0.555235 C.3        1 UNL1     -0.0615
     27 C         3.441493   -9.575123   4.731716 C.ar        1 UNL1     0.1347
     28 C         4.5592   -8.767966   4.616485 C.ar        1 UNL1     0.0342
     29 C         4.290136   -7.456799   4.169709 C.ar        1 UNL1     0.1435
     30 C         3.009563   -7.022799   3.82475 C.ar        1 UNL1     0.0774
     31 O         5.286847   -6.585453   3.900767 O.3        1 UNL1     -0.4436
     32 C         4.683857   -5.594483   3.055039 C.3        1 UNL1     0.3143
     33 C         3.200527   -5.665976   3.356423 C.2        1 UNL1     0.2504
     34 C         5.98765   -9.214392   4.759082 C.3        1 UNL1     -0.0327
     35 O         5.140215   -4.313698   3.507342 O.2        1 UNL1     -0.4528
     36 C         5.188299   -2.082319   0.437045 C.3        1 UNL1     0.0854
     37 C         4.01288   -1.721129   -0.550607 C.3        1 UNL1     0.0236
     38 C         3.747423   -0.150935   -0.739729 C.3        1 UNL1     0.1131
     39 C         3.576667   0.775157   0.531281 C.3        1 UNL1     0.0200
     40 C         2.645498   0.275364   1.82185 C.3        1 UNL1     0.0661
     41 C         1.066878   -0.33865   1.72936 C.3        1 UNL1     0.0091
     42 C         0.212083   -1.585252   2.768933 C.3        1 UNL1     0.0661
     43 C         1.023155   -10.116736   4.376824 C.2        1 UNL1     0.2131
     44 O         1.155296   -11.327101   4.393951 O.2        1 UNL1     -0.2851
     45 O         3.582325   -10.861   5.249524 O.3        1 UNL1     -0.5056
     46 O         2.367908   -4.792959   3.254245 O.2        1 UNL1     -0.2836
     47 C         0.123404   -1.548245   5.435125 C.3        1 UNL1     -0.0566
     48 O         -1.014513   -0.769376   2.939011 O.3        1 UNL1     -0.3909
     49 C         0.759865   -0.680481   0.288392 C.3        1 UNL1     -0.0577
     50 O         3.412243   -0.496917   2.723741 O.3        1 UNL1     -0.3910
     51 O         5.739906   -1.004142   1.158637 O.3        1 UNL1     -0.3753
     52 C         2.845031   -2.757664   -0.468917 C.3        1 UNL1     -0.0564
     53 O         2.884415   0.173915   -1.923795 O.3        1 UNL1     -0.4608
     54 C         3.296751   0.836202   -3.050421 C.2        1 UNL1     0.3042
     55 O         3.713954   0.341619   -4.096923 O.2        1 UNL1     -0.2512
     56 C         3.148124   2.328283   -2.959206 C.3        1 UNL1     0.0332
     57 C         5.002776   1.425903   0.848957 C.3        1 UNL1     -0.0567
     58 C         4.920109   -6.059528   1.599207 C.3        1 UNL1     0.0210
     59 C         5.986623   0.170107   0.386538 C.3        1 UNL1     0.0372
     60 C         4.871696   -3.145603   1.429189 C.2        1 UNL1     -0.0208
     61 C         5.120291   -3.208386   2.738007 C.2        1 UNL1     0.0882
     62 H         0.994157   -3.033896   4.162746 H        1 UNL1     0.0365
     63 H         0.426076   -4.770856   5.074055 H        1 UNL1     0.0576
     64 H         -2.594783   -4.771491   5.683305 H        1 UNL1     0.0615
     65 H         -0.356865   -6.924679   6.019999 H        1 UNL1     0.0622
     66 H         5.974179   -2.497729   -0.209386 H        1 UNL1     0.0645
     67 H         4.403326   -1.999046   -1.545028 H        1 UNL1     0.0362
     68 H         4.707413   0.145048   -1.189547 H        1 UNL1     0.0741
     69 H         3.090817   1.69361   0.229946 H        1 UNL1     0.0359
     70 H         2.501685   1.243139   2.339333 H        1 UNL1     0.0600
     71 H         0.487788   0.596709   1.85865 H        1 UNL1     0.0348
     72 H         1.066282   -1.229283   3.363025 H        1 UNL1     0.0602
     73 H         4.488924   -3.995237   0.920411 H        1 UNL1     0.0628
     74 H         5.457316   -2.36583   3.342781 H        1 UNL1     0.1022
     75 H         -4.180237   -8.471532   5.609443 H        1 UNL1     0.0279
     76 H         -3.63776   -9.536698   6.844126 H        1 UNL1     0.0279
     77 H         -4.189508   -7.852037   7.208528 H        1 UNL1     0.0279
     78 H         -2.231629   -9.688474   4.477454 H        1 UNL1     0.1553
     79 H         -2.503551   -8.007913   3.463552 H        1 UNL1     0.1484
     80 H         -1.106096   -6.294872   0.372904 H        1 UNL1     0.0317
     81 H         -0.567307   -7.880897   0.90597 H        1 UNL1     0.0317
     82 H         -2.9097   -8.533346   1.523394 H        1 UNL1     0.0428
     83 H         -2.760299   -8.055586   -0.153248 H        1 UNL1     0.0428
     84 H         -4.323214   -5.142031   2.524743 H        1 UNL1     0.0428
     85 H         -3.935412   -6.682733   3.206631 H        1 UNL1     0.0428
     86 H         -2.264199   -4.856229   3.516118 H        1 UNL1     0.0317
     87 H         -2.025344   -4.655814   1.841265 H        1 UNL1     0.0317
     88 H         -4.952108   -7.213432   -0.441785 H        1 UNL1     0.0429
     89 H         -5.399987   -7.852488   1.141644 H        1 UNL1     0.0429
     90 H         -6.954339   -6.141475   1.119914 H        1 UNL1     0.0308
     91 H         -5.796035   -5.026815   2.837618 H        1 UNL1     0.0233
     92 H         -4.361821   -4.735643   1.820886 H        1 UNL1     0.0233
     93 H         -5.793057   -3.74551   1.63167 H        1 UNL1     0.0233
     94 H         -5.270305   -4.747475   -0.972968 H        1 UNL1     0.0233
     95 H         -6.642203   -5.829597   -1.257989 H        1 UNL1     0.0233
     96 H         -6.899785   -4.258718   -0.464276 H        1 UNL1     0.0233
     97 H         6.627256   -8.420486   5.133042 H        1 UNL1     0.0280
     98 H         6.092753   -10.044768   5.469494 H        1 UNL1     0.0280
     99 H         6.37357   -9.535757   3.777814 H        1 UNL1     0.0280
     100 H         3.023175   -11.506011   4.853374 H        1 UNL1     0.2922
     101 H         -0.032192   -2.010521   6.409675 H        1 UNL1     0.0236
     102 H         -0.527005   -0.687696   5.282131 H        1 UNL1     0.0236
     103 H         1.140991   -1.12607   5.484897 H        1 UNL1     0.0236
     104 H         -1.003969   -0.406554   3.846325 H        1 UNL1     0.2098
     105 H         1.597773   -0.551504   -0.392113 H        1 UNL1     0.0234
     106 H         0.299754   -1.657345   0.140201 H        1 UNL1     0.0234
     107 H         -0.0   0.0   0.0 H        1 UNL1     0.0234
     108 H         3.965328   0.122095   3.23822 H        1 UNL1     0.2098
     109 H         2.563687   -3.146109   -1.457688 H        1 UNL1     0.0234
     110 H         3.0579   -3.593558   0.206146 H        1 UNL1     0.0234
     111 H         1.932543   -2.307548   -0.055751 H        1 UNL1     0.0234
     112 H         3.910787   2.816495   -3.573487 H        1 UNL1     0.0342
     113 H         2.149358   2.658346   -3.240928 H        1 UNL1     0.0342
     114 H         3.315071   2.626509   -1.915005 H        1 UNL1     0.0342
     115 H         5.486872   0.947679   1.711593 H        1 UNL1     0.0234
     116 H         5.705169   1.385319   0.014065 H        1 UNL1     0.0234
     117 H         4.941893   2.473005   1.192198 H        1 UNL1     0.0234
     118 H         3.994663   -6.026278   0.997999 H        1 UNL1     0.0309
     119 H         5.700688   -5.48811   1.086976 H        1 UNL1     0.0309
     120 H         5.223684   -7.110316   1.53761 H        1 UNL1     0.0309
     121 H         5.874109   -0.09641   -0.664017 H        1 UNL1     0.0524
     122 H         5.263546   0.97367   0.604445 H        1 UNL1     0.0524
     123 H         6.990973   0.539134   0.574137 H        1 UNL1     0.0524
@<TRIPOS>BOND
     1     1     2    1
     2     1    42    1
     3     2     3    2
     4     3     4    1
     5     4     5    2
     6     5     7    1
     7     6    75    1
     8     6    76    1
     9     6    77    1
    10     7     9   am
    11     9    10    1
    12    10    11    2
    13    10    43    1
    14    11    14    1
    15    11    15    1
    16    12    13   ar
    17    12    27   ar
    18    12    43    1
    19    13    14    1
    20    13    30   ar
    21    14    17    2
    22    15    16    1
    23    16    17    1
    24    16    18    1
    25    16    22    1
    26    18    19    1
    27    19    20    1
    28    20    21    1
    29    21    22    1
    30    23    24    1
    31    23    88    1
    32    23    89    1
    33    24    25    1
    34    24    26    1
    35    24    90    1
    36    25    91    1
    37    25    92    1
    38    25    93    1
    39    26    94    1
    40    26    95    1
    41    26    96    1
    42    27    28   ar
    43    28    29   ar
    44    29    30   ar
    45    29    31    1
    46    30    33    1
    47    31    32    1
    48    32    33    1
    49    32    35    1
    50    34    97    1
    51    34    98    1
    52    34    99    1
    53    35    61    1
    54    36    37    1
    55    36    60    1
    56    37    38    1
    57    38    39    1
    58    39    40    1
    59    40    41    1
    60    41    42    1
    61    45   100    1
    62    47   101    1
    63    47   102    1
    64    47   103    1
    65    48   104    1
    66    49   105    1
    67    49   106    1
    68    49   107    1
    69    50   108    1
    70    51    59    1
    71    52   109    1
    72    52   110    1
    73    52   111    1
    74    53    54    1
    75    54    55    2
    76    54    56    1
    77    56   112    1
    78    56   113    1
    79    56   114    1
    80    57   115    1
    81    57   116    1
    82    57   117    1
    83    58   118    1
    84    58   119    1
    85    58   120    1
    86    59   121    1
    87    59   122    1
    88    59   123    1
    89    60    61    2
    90     1    47    1
    91     1    62    1
    92     2    63    1
    93     3    64    1
    94     4    65    1
    95     5     6    1
    96     7     8    2
    97     9    78    1
    98    15    79    1
    99    18    80    1
   100    18    81    1
   101    19    82    1
   102    19    83    1
   103    20    23    1
   104    21    84    1
   105    21    85    1
   106    22    86    1
   107    22    87    1
   108    27    45    1
   109    28    34    1
   110    32    58    1
   111    33    46    2
   112    36    51    1
   113    36    66    1
   114    37    52    1
   115    37    67    1
   116    38    53    1
   117    38    68    1
   118    42    48    1
   119    42    72    1
   120    43    44    2
   121    60    73    1
   122    61    74    1
   123    39    69    1
   124    39    57    1
   125    40    70    1
   126    40    50    1
   127    41    71    1
   128    41    49    1
