@<TRIPOS>MOLECULE
*****
 123 128 0 0 0
SMALL
GASTEIGER

@<TRIPOS>ATOM
     1 C         -2.118543   4.378343   -1.801532 C.3        1 UNL1     0.0009
     2 C         -1.733024   6.030549   -2.548946 C.2        1 UNL1     -0.0787
     3 C         -1.368395   7.423433   -2.397399 C.2        1 UNL1     -0.0649
     4 C         -1.005398   8.542461   -3.614924 C.2        1 UNL1     -0.0542
     5 C         -0.370949   9.77492   -3.907495 C.2        1 UNL1     0.0115
     6 C         0.29254   11.028348   -3.273442 C.3        1 UNL1     -0.0348
     7 C         -0.007856   10.118896   -5.432891 C.2        1 UNL1     0.2441
     8 O         -0.669946   10.886518   -6.117668 O.2        1 UNL1     -0.2702
     9 N         1.263513   9.685719   -5.847774 N.am        1 UNL1     -0.2772
     10 C         1.199609   8.396637   -6.32475 C.2        1 UNL1     0.1049
     11 C         1.24103   7.437663   -5.417624 C.2        1 UNL1     0.0801
     12 C         -0.083544   6.919692   -7.883431 C.ar        1 UNL1     0.0753
     13 C         -0.190701   5.99639   -6.79502 C.ar        1 UNL1     0.0305
     14 C         0.581578   6.168688   -5.566627 C.2        1 UNL1     0.0924
     15 N         1.546111   7.498098   -4.110031 N.pl3        1 UNL1     -0.3170
     16 C         1.612001   6.15002   -3.611436 C.3        1 UNL1     0.1275
     17 N         0.682196   5.36962   -4.508187 N.2        1 UNL1     -0.2557
     18 C         3.016313   5.628858   -3.901263 C.3        1 UNL1     0.0016
     19 C         4.026049   6.579013   -3.277382 C.3        1 UNL1     0.0026
     20 N         3.778683   6.649138   -1.843883 N.3        1 UNL1     -0.3018
     21 C         2.431831   7.082078   -1.465833 C.3        1 UNL1     0.0026
     22 C         1.433984   6.111085   -2.09937 C.3        1 UNL1     0.0016
     23 C         4.858857   7.284364   -1.115627 C.3        1 UNL1     0.0012
     24 C         4.378437   7.740436   0.271079 C.3        1 UNL1     -0.0339
     25 C         5.561929   8.049916   1.202543 C.3        1 UNL1     -0.0615
     26 C         3.448401   8.933306   0.133696 C.3        1 UNL1     -0.0615
     27 C         -0.728772   6.684834   -9.095306 C.ar        1 UNL1     0.1347
     28 C         -1.473595   5.547026   -9.349633 C.ar        1 UNL1     0.0342
     29 C         -1.605398   4.675862   -8.247424 C.ar        1 UNL1     0.1435
     30 C         -0.99455   4.915871   -7.01597 C.ar        1 UNL1     0.0774
     31 O         -2.207845   3.472745   -8.368144 O.3        1 UNL1     -0.4436
     32 C         -1.740585   2.718331   -7.239694 C.3        1 UNL1     0.3143
     33 C         -1.323041   3.754522   -6.215889 C.2        1 UNL1     0.2504
     34 C         -1.98175   5.108258   -10.694758 C.3        1 UNL1     -0.0327
     35 O         -2.869385   2.024292   -6.694375 O.2        1 UNL1     -0.4528
     36 C         -1.490292   -1.162355   -5.160924 C.3        1 UNL1     0.0854
     37 C         -0.385316   -1.335834   -4.048963 C.3        1 UNL1     0.0236
     38 C         -0.838835   -2.196236   -2.773906 C.3        1 UNL1     0.1131
     39 C         -2.187005   -1.84129   -2.026431 C.3        1 UNL1     0.0200
     40 C         -2.583828   -0.2526   -1.708575 C.3        1 UNL1     0.0661
     41 C         -1.57025   0.899042   -0.984702 C.3        1 UNL1     0.0091
     42 C         -1.462486   2.713408   -1.233431 C.3        1 UNL1     0.0661
     43 C         0.810228   8.091526   -7.70954 C.2        1 UNL1     0.2131
     44 O         1.291327   8.714778   -8.638431 O.2        1 UNL1     -0.2851
     45 O         -0.610523   7.655575   -10.087837 O.3        1 UNL1     -0.5056
     46 O         -1.290311   3.651792   -5.009975 O.2        1 UNL1     -0.2836
     47 C         -3.537653   4.389043   -1.172252 C.3        1 UNL1     -0.0566
     48 O         -1.452587   3.026297   0.216093 O.3        1 UNL1     -0.3909
     49 C         -0.153653   0.369193   -0.981686 C.3        1 UNL1     -0.0577
     50 O         -3.263258   0.32345   -2.805965 O.3        1 UNL1     -0.3910
     51 O         -2.778619   -1.627275   -4.827016 O.3        1 UNL1     -0.3753
     52 C         0.511119   -0.061627   -3.915727 C.3        1 UNL1     -0.0564
     53 O         0.30604   -2.641053   -1.911511 O.3        1 UNL1     -0.4608
     54 C         1.624194   -2.656844   -2.285877 C.2        1 UNL1     0.3042
     55 O         2.59212   -2.277691   -1.627697 O.2        1 UNL1     -0.2512
     56 C         1.857934   -3.267048   -3.638552 C.3        1 UNL1     0.0332
     57 C         -3.330317   -2.791284   -2.616791 C.3        1 UNL1     -0.0567
     58 C         -0.484101   1.95255   -7.715466 C.3        1 UNL1     0.0210
     59 C         -3.012867   -3.004415   -5.117665 C.3        1 UNL1     0.0372
     60 C         -1.654202   0.225293   -5.673492 C.2        1 UNL1     -0.0208
     61 C         -2.758591   0.934241   -5.911112 C.2        1 UNL1     0.0882
     62 H         -2.227651   3.967845   -2.812619 H        1 UNL1     0.0365
     63 H         -1.916483   5.823887   -3.605404 H        1 UNL1     0.0576
     64 H         -1.128448   7.849317   -1.42059 H        1 UNL1     0.0615
     65 H         -1.353035   8.05443   -4.529505 H        1 UNL1     0.0622
     66 H         -1.122973   -1.755788   -6.010017 H        1 UNL1     0.0645
     67 H         0.358837   -2.006391   -4.512805 H        1 UNL1     0.0362
     68 H         -1.022289   -3.165613   -3.261938 H        1 UNL1     0.0741
     69 H         -2.163784   -2.282067   -1.038714 H        1 UNL1     0.0359
     70 H         -3.36999   -0.401752   -0.943877 H        1 UNL1     0.0600
     71 H         -1.854071   0.765782   0.077674 H        1 UNL1     0.0348
     72 H         -2.449318   2.413143   -1.614639 H        1 UNL1     0.0602
     73 H         -0.707774   0.600338   -5.974926 H        1 UNL1     0.0628
     74 H         -3.758071   0.647506   -5.582387 H        1 UNL1     0.1022
     75 H         1.399755   10.896852   -3.211637 H        1 UNL1     0.0279
     76 H         0.197798   11.95981   -3.82704 H        1 UNL1     0.0279
     77 H         0.030106   11.15803   -2.213248 H        1 UNL1     0.0279
     78 H         1.90122   9.687537   -5.054424 H        1 UNL1     0.1553
     79 H         2.048512   8.25836   -3.689879 H        1 UNL1     0.1484
     80 H         3.113353   4.616051   -3.491908 H        1 UNL1     0.0317
     81 H         3.189133   5.548875   -4.979867 H        1 UNL1     0.0317
     82 H         3.982446   7.577895   -3.735907 H        1 UNL1     0.0428
     83 H         5.020501   6.189609   -3.497565 H        1 UNL1     0.0428
     84 H         2.24714   7.049583   -0.387573 H        1 UNL1     0.0428
     85 H         2.248664   8.131155   -1.736396 H        1 UNL1     0.0428
     86 H         0.47478   6.377156   -1.695485 H        1 UNL1     0.0317
     87 H         1.599944   5.098072   -1.712902 H        1 UNL1     0.0317
     88 H         5.661073   6.546796   -0.982442 H        1 UNL1     0.0429
     89 H         5.283532   8.122522   -1.683003 H        1 UNL1     0.0429
     90 H         3.777475   6.942613   0.723335 H        1 UNL1     0.0308
     91 H         6.494237   8.154896   0.63962 H        1 UNL1     0.0233
     92 H         5.379122   8.966781   1.767829 H        1 UNL1     0.0233
     93 H         5.726181   7.260163   1.945609 H        1 UNL1     0.0233
     94 H         3.221615   9.351048   1.120558 H        1 UNL1     0.0233
     95 H         3.928936   9.715194   -0.461031 H        1 UNL1     0.0233
     96 H         2.507265   8.652236   -0.347168 H        1 UNL1     0.0233
     97 H         -2.652737   4.257785   -10.619244 H        1 UNL1     0.0280
     98 H         -2.553475   5.898282   -11.198988 H        1 UNL1     0.0280
     99 H         -1.131399   4.821746   -11.335 H        1 UNL1     0.0280
     100 H         0.224816   8.088124   -10.114897 H        1 UNL1     0.2922
     101 H         -3.60935   5.193532   -0.440601 H        1 UNL1     0.0236
     102 H         -3.827305   3.426666   -0.751636 H        1 UNL1     0.0236
     103 H         -4.31895   4.617083   -1.916407 H        1 UNL1     0.0236
     104 H         -0.827422   2.410724   0.646452 H        1 UNL1     0.2098
     105 H         0.021359   -0.448819   -1.675975 H        1 UNL1     0.0234
     106 H         0.617723   1.131055   -1.093359 H        1 UNL1     0.0234
     107 H         0.0   0.0   0.0 H        1 UNL1     0.0234
     108 H         -3.184813   -0.29863   -3.554718 H        1 UNL1     0.2098
     109 H         0.709093   0.199879   -2.866855 H        1 UNL1     0.0234
     110 H         1.45918   -0.14374   -4.458112 H        1 UNL1     0.0234
     111 H         0.028115   0.82087   -4.356013 H        1 UNL1     0.0234
     112 H         0.927178   -3.700154   -4.017312 H        1 UNL1     0.0342
     113 H         2.27109   -2.54938   -4.345729 H        1 UNL1     0.0342
     114 H         2.587055   -4.081262   -3.526294 H        1 UNL1     0.0342
     115 H         -4.207817   -2.218042   -2.946302 H        1 UNL1     0.0234
     116 H         -3.005492   -3.406919   -3.457939 H        1 UNL1     0.0234
     117 H         -3.782162   -3.457362   -1.861729 H        1 UNL1     0.0234
     118 H         0.368036   2.085143   -7.026055 H        1 UNL1     0.0309
     119 H         -0.66295   0.882651   -7.862202 H        1 UNL1     0.0309
     120 H         -0.09836   2.329104   -8.669152 H        1 UNL1     0.0309
     121 H         -2.323691   -3.591263   -4.511033 H        1 UNL1     0.0524
     122 H         -4.036665   -3.319111   -4.855286 H        1 UNL1     0.0524
     123 H         -2.84337   -3.199988   -6.172708 H        1 UNL1     0.0524
@<TRIPOS>BOND
     1     1     2    1
     2     1    42    1
     3     2     3    2
     4     3     4    1
     5     4     5    2
     6     5     7    1
     7     6    75    1
     8     6    76    1
     9     6    77    1
    10     7     9   am
    11     9    10    1
    12    10    11    2
    13    10    43    1
    14    11    14    1
    15    11    15    1
    16    12    13   ar
    17    12    27   ar
    18    12    43    1
    19    13    14    1
    20    13    30   ar
    21    14    17    2
    22    15    16    1
    23    16    17    1
    24    16    18    1
    25    16    22    1
    26    18    19    1
    27    19    20    1
    28    20    21    1
    29    21    22    1
    30    23    24    1
    31    23    88    1
    32    23    89    1
    33    24    25    1
    34    24    26    1
    35    24    90    1
    36    25    91    1
    37    25    92    1
    38    25    93    1
    39    26    94    1
    40    26    95    1
    41    26    96    1
    42    27    28   ar
    43    28    29   ar
    44    29    30   ar
    45    29    31    1
    46    30    33    1
    47    31    32    1
    48    32    33    1
    49    32    35    1
    50    34    97    1
    51    34    98    1
    52    34    99    1
    53    35    61    1
    54    36    37    1
    55    36    60    1
    56    37    38    1
    57    38    39    1
    58    39    40    1
    59    40    41    1
    60    41    42    1
    61    45   100    1
    62    47   101    1
    63    47   102    1
    64    47   103    1
    65    48   104    1
    66    49   105    1
    67    49   106    1
    68    49   107    1
    69    50   108    1
    70    51    59    1
    71    52   109    1
    72    52   110    1
    73    52   111    1
    74    53    54    1
    75    54    55    2
    76    54    56    1
    77    56   112    1
    78    56   113    1
    79    56   114    1
    80    57   115    1
    81    57   116    1
    82    57   117    1
    83    58   118    1
    84    58   119    1
    85    58   120    1
    86    59   121    1
    87    59   122    1
    88    59   123    1
    89    60    61    2
    90     1    47    1
    91     1    62    1
    92     2    63    1
    93     3    64    1
    94     4    65    1
    95     5     6    1
    96     7     8    2
    97     9    78    1
    98    15    79    1
    99    18    80    1
   100    18    81    1
   101    19    82    1
   102    19    83    1
   103    20    23    1
   104    21    84    1
   105    21    85    1
   106    22    86    1
   107    22    87    1
   108    27    45    1
   109    28    34    1
   110    32    58    1
   111    33    46    2
   112    36    51    1
   113    36    66    1
   114    37    52    1
   115    37    67    1
   116    38    53    1
   117    38    68    1
   118    42    48    1
   119    42    72    1
   120    43    44    2
   121    60    73    1
   122    61    74    1
   123    39    69    1
   124    39    57    1
   125    40    70    1
   126    40    50    1
   127    41    71    1
   128    41    49    1
