@<TRIPOS>MOLECULE
*****
 123 128 0 0 0
SMALL
GASTEIGER

@<TRIPOS>ATOM
     1 C         -1.323687   -4.34303   2.655347 C.3        1 UNL1     0.0009
     2 C         -2.635649   -5.631695   2.890157 C.2        1 UNL1     -0.0787
     3 C         -3.855293   -6.080795   3.527984 C.2        1 UNL1     -0.0649
     4 C         -4.741543   -7.486781   3.205305 C.2        1 UNL1     -0.0542
     5 C         -6.002957   -8.118978   3.332731 C.2        1 UNL1     0.0115
     6 C         -7.400005   -8.012192   4.003684 C.3        1 UNL1     -0.0348
     7 C         -6.335055   -9.384671   2.402826 C.2        1 UNL1     0.2441
     8 O         -6.291881   -10.537981   2.808456 O.2        1 UNL1     -0.2702
     9 N         -6.930325   -9.069039   1.169059 N.am        1 UNL1     -0.2772
     10 C         -5.965518   -8.829418   0.217717 C.2        1 UNL1     0.1049
     11 C         -5.449496   -7.613774   0.205402 C.2        1 UNL1     0.0801
     12 C         -3.864282   -9.772965   -0.757916 C.ar        1 UNL1     0.0753
     13 C         -3.283015   -8.480766   -0.555534 C.ar        1 UNL1     0.0305
     14 C         -4.097443   -7.324307   -0.18898 C.2        1 UNL1     0.0924
     15 N         -5.855081   -6.496789   0.833393 N.pl3        1 UNL1     -0.3170
     16 C         -5.051262   -5.405134   0.351293 C.3        1 UNL1     0.1275
     17 N         -3.748628   -6.047458   -0.058937 N.2        1 UNL1     -0.2557
     18 C         -5.698313   -4.900801   -0.935048 C.3        1 UNL1     0.0016
     19 C         -7.144064   -4.533709   -0.640704 C.3        1 UNL1     0.0026
     20 N         -7.165109   -3.508358   0.393337 N.3        1 UNL1     -0.3018
     21 C         -6.510401   -3.87886   1.649702 C.3        1 UNL1     0.0026
     22 C         -5.05831   -4.23925   1.331198 C.3        1 UNL1     0.0016
     23 C         -8.462088   -2.877239   0.53539 C.3        1 UNL1     0.0012
     24 C         -9.283154   -3.037477   -0.753769 C.3        1 UNL1     -0.0339
     25 C         -8.448317   -2.694381   -1.998513 C.3        1 UNL1     -0.0615
     26 C         -9.856559   -4.441546   -0.834865 C.3        1 UNL1     -0.0615
     27 C         -3.102662   -10.842009   -1.223961 C.ar        1 UNL1     0.1347
     28 C         -1.764832   -10.730874   -1.558494 C.ar        1 UNL1     0.0342
     29 C         -1.202046   -9.461983   -1.304816 C.ar        1 UNL1     0.1435
     30 C         -1.944063   -8.391533   -0.804048 C.ar        1 UNL1     0.0774
     31 O         0.060927   -9.163416   -1.679998 O.3        1 UNL1     -0.4436
     32 C         0.103583   -7.728621   -1.700429 C.3        1 UNL1     0.3143
     33 C         -1.009476   -7.285953   -0.772335 C.2        1 UNL1     0.2504
     34 C         -0.952155   -11.758248   -2.296166 C.3        1 UNL1     -0.0327
     35 O         1.3379   -7.330437   -1.091197 O.2        1 UNL1     -0.4528
     36 C         2.303488   -4.05196   -2.742656 C.3        1 UNL1     0.0854
     37 C         1.490347   -2.703434   -2.83098 C.3        1 UNL1     0.0236
     38 C         2.262859   -1.411017   -2.279048 C.3        1 UNL1     0.1131
     39 C         2.930978   -1.44827   -0.845695 C.3        1 UNL1     0.0200
     40 C         2.119514   -2.120304   0.447492 C.3        1 UNL1     0.0661
     41 C         0.524711   -1.772445   0.909239 C.3        1 UNL1     0.0091
     42 C         -0.746738   -2.838013   1.692427 C.3        1 UNL1     0.0661
     43 C         -5.325383   -9.914746   -0.540337 C.2        1 UNL1     0.2131
     44 O         -5.996169   -10.803416   -1.033338 O.2        1 UNL1     -0.2851
     45 O         -3.734312   -12.077546   -1.350071 O.3        1 UNL1     -0.5056
     46 O         -1.094895   -6.261201   -0.133242 O.2        1 UNL1     -0.2836
     47 C         -0.359448   -4.32723   3.871889 C.3        1 UNL1     -0.0566
     48 O         -1.121128   -1.83355   2.717124 O.3        1 UNL1     -0.3909
     49 C         -0.157187   -1.025889   -0.215555 C.3        1 UNL1     -0.0577
     50 O         2.348793   -3.513412   0.513841 O.3        1 UNL1     -0.3910
     51 O         3.523548   -3.990704   -2.038999 O.3        1 UNL1     -0.3753
     52 C         -0.03711   -2.927744   -2.58297 C.3        1 UNL1     -0.0564
     53 O         1.629861   -0.113023   -2.687519 O.3        1 UNL1     -0.4608
     54 C         0.409981   0.344952   -2.263162 C.2        1 UNL1     0.3042
     55 O         -0.502678   -0.312848   -1.764974 O.2        1 UNL1     -0.2512
     56 C         0.247052   1.83251   -2.394846 C.3        1 UNL1     0.0332
     57 C         4.470839   -1.833974   -1.041233 C.3        1 UNL1     -0.0567
     58 C         -0.250654   -7.300993   -3.143752 C.3        1 UNL1     0.0210
     59 C         4.674279   -3.768191   -2.852738 C.3        1 UNL1     0.0372
     60 C         1.546388   -5.207706   -2.189291 C.2        1 UNL1     -0.0208
     61 C         1.904604   -6.124855   -1.2897 C.2        1 UNL1     0.0882
     62 H         -0.858463   -4.982582   1.895576 H        1 UNL1     0.0365
     63 H         -2.24805   -6.43418   2.259083 H        1 UNL1     0.0576
     64 H         -4.42299   -5.431906   4.198634 H        1 UNL1     0.0615
     65 H         -4.059926   -8.091563   2.601053 H        1 UNL1     0.0622
     66 H         2.525141   -4.309587   -3.787904 H        1 UNL1     0.0645
     67 H         1.446111   -2.487406   -3.912615 H        1 UNL1     0.0362
     68 H         3.101563   -1.379971   -2.991181 H        1 UNL1     0.0741
     69 H         3.103334   -0.432541   -0.515547 H        1 UNL1     0.0359
     70 H         2.71289   -1.702219   1.283058 H        1 UNL1     0.0600
     71 H         0.707223   -0.954374   1.633398 H        1 UNL1     0.0348
     72 H         0.219188   -3.327307   1.884506 H        1 UNL1     0.0602
     73 H         0.633665   -5.3142   -2.721122 H        1 UNL1     0.0628
     74 H         2.793883   -6.058544   -0.661987 H        1 UNL1     0.1022
     75 H         -7.848584   -7.006676   3.817279 H        1 UNL1     0.0279
     76 H         -8.169614   -8.684688   3.631501 H        1 UNL1     0.0279
     77 H         -7.34634   -8.025383   5.102159 H        1 UNL1     0.0279
     78 H         -7.484524   -8.220532   1.263799 H        1 UNL1     0.1553
     79 H         -6.779529   -6.369737   1.202428 H        1 UNL1     0.1484
     80 H         -5.13299   -4.036783   -1.304708 H        1 UNL1     0.0317
     81 H         -5.654439   -5.663259   -1.72015 H        1 UNL1     0.0317
     82 H         -7.733851   -5.411921   -0.339361 H        1 UNL1     0.0428
     83 H         -7.586975   -4.178365   -1.571623 H        1 UNL1     0.0428
     84 H         -6.469947   -3.064686   2.379973 H        1 UNL1     0.0428
     85 H         -7.05203   -4.679365   2.172337 H        1 UNL1     0.0428
     86 H         -4.578205   -4.374602   2.282601 H        1 UNL1     0.0317
     87 H         -4.540856   -3.37003   0.907176 H        1 UNL1     0.0317
     88 H         -8.99667   -3.375864   1.354468 H        1 UNL1     0.0429
     89 H         -8.362807   -1.819898   0.812783 H        1 UNL1     0.0429
     90 H         -10.146769   -2.362986   -0.715752 H        1 UNL1     0.0308
     91 H         -8.071028   -3.598363   -2.485926 H        1 UNL1     0.0233
     92 H         -9.041097   -2.12125   -2.715271 H        1 UNL1     0.0233
     93 H         -7.575874   -2.074674   -1.758425 H        1 UNL1     0.0233
     94 H         -9.8428   -4.795871   -1.871253 H        1 UNL1     0.0233
     95 H         -9.251048   -5.127589   -0.235979 H        1 UNL1     0.0233
     96 H         -10.88794   -4.472922   -0.472597 H        1 UNL1     0.0233
     97 H         -1.031463   -12.742173   -1.843583 H        1 UNL1     0.0280
     98 H         -1.282493   -11.878339   -3.336219 H        1 UNL1     0.0280
     99 H         0.109303   -11.460943   -2.292949 H        1 UNL1     0.0280
     100 H         -3.589295   -12.666646   -0.630659 H        1 UNL1     0.2922
     101 H         0.239795   -3.417145   3.854277 H        1 UNL1     0.0236
     102 H         0.257996   -5.222191   3.941113 H        1 UNL1     0.0236
     103 H         -0.902935   -4.28594   4.830592 H        1 UNL1     0.0236
     104 H         -0.774622   -0.968563   2.422675 H        1 UNL1     0.2098
     105 H         0.254619   -1.225574   -1.201635 H        1 UNL1     0.0234
     106 H         -1.242776   -1.121371   -0.233107 H        1 UNL1     0.0234
     107 H         0.0   0.0   0.0 H        1 UNL1     0.0234
     108 H         3.197543   -3.689476   0.06396 H        1 UNL1     0.2098
     109 H         -0.365505   -3.930572   -2.889896 H        1 UNL1     0.0234
     110 H         -0.335833   -2.746083   -1.544939 H        1 UNL1     0.0234
     111 H         -0.648938   -2.224116   -3.163074 H        1 UNL1     0.0234
     112 H         -0.032881   2.086782   -3.421651 H        1 UNL1     0.0342
     113 H         -0.475024   2.230003   -1.683193 H        1 UNL1     0.0342
     114 H         1.216755   2.303902   -2.183587 H        1 UNL1     0.0342
     115 H         4.948072   -1.22626   -1.822335 H        1 UNL1     0.0234
     116 H         5.071825   -1.734932   -0.135111 H        1 UNL1     0.0234
     117 H         4.622161   -2.851544   -1.440725 H        1 UNL1     0.0234
     118 H         0.581775   -7.482362   -3.846015 H        1 UNL1     0.0309
     119 H         -1.154102   -7.786507   -3.526192 H        1 UNL1     0.0309
     120 H         -0.425188   -6.223094   -3.231945 H        1 UNL1     0.0309
     121 H         4.580909   -4.399974   -3.735626 H        1 UNL1     0.0524
     122 H         4.746684   -2.723486   -3.198259 H        1 UNL1     0.0524
     123 H         5.577123   -4.021545   -2.304305 H        1 UNL1     0.0524
@<TRIPOS>BOND
     1     1     2    1
     2     1    42    1
     3     2     3    2
     4     3     4    1
     5     4     5    2
     6     5     7    1
     7     6    75    1
     8     6    76    1
     9     6    77    1
    10     7     9   am
    11     9    10    1
    12    10    11    2
    13    10    43    1
    14    11    14    1
    15    11    15    1
    16    12    13   ar
    17    12    27   ar
    18    12    43    1
    19    13    14    1
    20    13    30   ar
    21    14    17    2
    22    15    16    1
    23    16    17    1
    24    16    18    1
    25    16    22    1
    26    18    19    1
    27    19    20    1
    28    20    21    1
    29    21    22    1
    30    23    24    1
    31    23    88    1
    32    23    89    1
    33    24    25    1
    34    24    26    1
    35    24    90    1
    36    25    91    1
    37    25    92    1
    38    25    93    1
    39    26    94    1
    40    26    95    1
    41    26    96    1
    42    27    28   ar
    43    28    29   ar
    44    29    30   ar
    45    29    31    1
    46    30    33    1
    47    31    32    1
    48    32    33    1
    49    32    35    1
    50    34    97    1
    51    34    98    1
    52    34    99    1
    53    35    61    1
    54    36    37    1
    55    36    60    1
    56    37    38    1
    57    38    39    1
    58    39    40    1
    59    40    41    1
    60    41    42    1
    61    45   100    1
    62    47   101    1
    63    47   102    1
    64    47   103    1
    65    48   104    1
    66    49   105    1
    67    49   106    1
    68    49   107    1
    69    50   108    1
    70    51    59    1
    71    52   109    1
    72    52   110    1
    73    52   111    1
    74    53    54    1
    75    54    55    2
    76    54    56    1
    77    56   112    1
    78    56   113    1
    79    56   114    1
    80    57   115    1
    81    57   116    1
    82    57   117    1
    83    58   118    1
    84    58   119    1
    85    58   120    1
    86    59   121    1
    87    59   122    1
    88    59   123    1
    89    60    61    2
    90     1    47    1
    91     1    62    1
    92     2    63    1
    93     3    64    1
    94     4    65    1
    95     5     6    1
    96     7     8    2
    97     9    78    1
    98    15    79    1
    99    18    80    1
   100    18    81    1
   101    19    82    1
   102    19    83    1
   103    20    23    1
   104    21    84    1
   105    21    85    1
   106    22    86    1
   107    22    87    1
   108    27    45    1
   109    28    34    1
   110    32    58    1
   111    33    46    2
   112    36    51    1
   113    36    66    1
   114    37    52    1
   115    37    67    1
   116    38    53    1
   117    38    68    1
   118    42    48    1
   119    42    72    1
   120    43    44    2
   121    60    73    1
   122    61    74    1
   123    39    69    1
   124    39    57    1
   125    40    70    1
   126    40    50    1
   127    41    71    1
   128    41    49    1
