@<TRIPOS>MOLECULE
*****
 123 128 0 0 0
SMALL
GASTEIGER

@<TRIPOS>ATOM
     1 C         2.35665   -3.335737   -3.523982 C.3        1 UNL1     0.0009
     2 C         2.244315   -4.139848   -5.190662 C.2        1 UNL1     -0.0787
     3 C         1.841025   -5.253365   -6.02342 C.2        1 UNL1     -0.0649
     4 C         1.916404   -5.371814   -7.71062 C.2        1 UNL1     -0.0542
     5 C         1.41532   -6.047366   -8.850629 C.2        1 UNL1     0.0115
     6 C         0.565093   -7.259846   -9.320024 C.3        1 UNL1     -0.0348
     7 C         1.60238   -5.375397   -10.296469 C.2        1 UNL1     0.2441
     8 O         2.456235   -5.738672   -11.093645 O.2        1 UNL1     -0.2702
     9 N         0.556943   -4.521389   -10.68875 N.am        1 UNL1     -0.2772
     10 C         0.790587   -3.240503   -10.243706 C.2        1 UNL1     0.1049
     11 C         0.442751   -2.985524   -8.99542 C.2        1 UNL1     0.0801
     12 C         2.544388   -1.458808   -10.159573 C.ar        1 UNL1     0.0753
     13 C         2.272704   -1.367222   -8.757287 C.ar        1 UNL1     0.0305
     14 C         1.120851   -2.035451   -8.155826 C.2        1 UNL1     0.0924
     15 N         -0.297791   -3.710719   -8.139723 N.pl3        1 UNL1     -0.3170
     16 C         -0.524266   -2.909338   -6.966372 C.3        1 UNL1     0.1275
     17 N         0.663955   -1.980661   -6.90796 N.2        1 UNL1     -0.2557
     18 C         -1.737245   -2.027845   -7.248072 C.3        1 UNL1     0.0016
     19 C         -2.90673   -2.919023   -7.634976 C.3        1 UNL1     0.0026
     20 N         -3.172998   -3.842639   -6.540873 N.3        1 UNL1     -0.3018
     21 C         -2.043985   -4.691812   -6.15538 C.3        1 UNL1     0.0026
     22 C         -0.882165   -3.776035   -5.76625 C.3        1 UNL1     0.0016
     23 C         -4.442805   -4.527851   -6.677679 C.3        1 UNL1     0.0012
     24 C         -4.946748   -4.443867   -8.127074 C.3        1 UNL1     -0.0339
     25 C         -6.451013   -4.130486   -8.18217 C.3        1 UNL1     -0.0615
     26 C         -4.13403   -3.421702   -8.902604 C.3        1 UNL1     -0.0615
     27 C         3.571757   -0.722879   -10.745269 C.ar        1 UNL1     0.1347
     28 C         4.365666   0.164468   -10.040732 C.ar        1 UNL1     0.0342
     29 C         4.111975   0.201496   -8.653132 C.ar        1 UNL1     0.1435
     30 C         3.110015   -0.557066   -8.046601 C.ar        1 UNL1     0.0774
     31 O         4.726385   1.0955   -7.847982 O.3        1 UNL1     -0.4436
     32 C         3.901079   1.154145   -6.674823 C.3        1 UNL1     0.3143
     33 C         3.147505   -0.16036   -6.654486 C.2        1 UNL1     0.2504
     34 C         5.312045   1.167608   -10.63921 C.3        1 UNL1     -0.0327
     35 O         4.774594   1.151879   -5.538945 O.2        1 UNL1     -0.4528
     36 C         2.96883   3.108496   -2.833588 C.3        1 UNL1     0.0854
     37 C         1.547591   2.852778   -2.199389 C.3        1 UNL1     0.0236
     38 C         1.535498   2.713636   -0.601816 C.3        1 UNL1     0.1131
     39 C         2.53795   1.716192   0.10703 C.3        1 UNL1     0.0200
     40 C         2.78973   0.188415   -0.513408 C.3        1 UNL1     0.0661
     41 C         1.580655   -0.91875   -0.949223 C.3        1 UNL1     0.0091
     42 C         1.554596   -2.194922   -2.266838 C.3        1 UNL1     0.0661
     43 C         1.638522   -2.295336   -10.985339 C.2        1 UNL1     0.2131
     44 O         1.506029   -2.158632   -12.188042 O.2        1 UNL1     -0.2851
     45 O         3.799447   -0.904226   -12.10788 O.3        1 UNL1     -0.5056
     46 O         2.698692   -0.756967   -5.701343 O.2        1 UNL1     -0.2836
     47 C         3.468828   -4.007963   -2.674774 C.3        1 UNL1     -0.0566
     48 O         1.039992   -3.264917   -1.378351 O.3        1 UNL1     -0.3909
     49 C         0.254519   -0.194113   -1.010524 C.3        1 UNL1     -0.0577
     50 O         3.80433   0.207984   -1.49724 O.3        1 UNL1     -0.3910
     51 O         4.06392   3.010006   -1.951256 O.3        1 UNL1     -0.3753
     52 C         0.652703   1.958634   -3.118427 C.3        1 UNL1     -0.0564
     53 O         0.165209   2.823802   0.00026 O.3        1 UNL1     -0.4608
     54 C         -0.139539   2.635828   1.323032 C.2        1 UNL1     0.3042
     55 O         0.632154   2.329428   2.231022 O.2        1 UNL1     -0.2512
     56 C         -1.581153   2.901278   1.651664 C.3        1 UNL1     0.0332
     57 C         3.821054   2.559377   0.555202 C.3        1 UNL1     -0.0567
     58 C         2.892831   2.303655   -6.906326 C.3        1 UNL1     0.0210
     59 C         5.312661   3.433853   -2.49611 C.3        1 UNL1     0.0372
     60 C         3.291829   2.262487   -4.014732 C.2        1 UNL1     -0.0208
     61 C         4.405538   1.596294   -4.322278 C.2        1 UNL1     0.0882
     62 H         2.812649   -2.45877   -3.999066 H        1 UNL1     0.0365
     63 H         2.784514   -3.415003   -5.803243 H        1 UNL1     0.0576
     64 H         1.274139   -6.094845   -5.618871 H        1 UNL1     0.0615
     65 H         2.563056   -4.539577   -8.001662 H        1 UNL1     0.0622
     66 H         2.922954   4.141459   -3.206319 H        1 UNL1     0.0645
     67 H         1.015041   3.809366   -2.340417 H        1 UNL1     0.0362
     68 H         1.883084   3.721141   -0.32679 H        1 UNL1     0.0741
     69 H         2.175945   1.509959   1.105443 H        1 UNL1     0.0359
     70 H         3.262339   -0.297276   0.361695 H        1 UNL1     0.0600
     71 H         1.478725   -1.477841   0.001558 H        1 UNL1     0.0348
     72 H         2.614257   -1.952765   -2.100122 H        1 UNL1     0.0602
     73 H         2.506642   2.340133   -4.725154 H        1 UNL1     0.0628
     74 H         5.230444   1.42157   -3.630729 H        1 UNL1     0.1022
     75 H         -0.519121   -6.99333   -9.341987 H        1 UNL1     0.0279
     76 H         0.740414   -7.61175   -10.334171 H        1 UNL1     0.0279
     77 H         0.570089   -8.088288   -8.596587 H        1 UNL1     0.0279
     78 H         -0.316574   -4.836067   -10.27159 H        1 UNL1     0.1553
     79 H         -0.919585   -4.44479   -8.425106 H        1 UNL1     0.1484
     80 H         -1.964045   -1.435267   -6.353544 H        1 UNL1     0.0317
     81 H         -1.52425   -1.314147   -8.051141 H        1 UNL1     0.0317
     82 H         -2.712878   -3.461074   -8.572267 H        1 UNL1     0.0428
     83 H         -3.760373   -2.270151   -7.833242 H        1 UNL1     0.0428
     84 H         -2.245022   -5.318558   -5.280975 H        1 UNL1     0.0428
     85 H         -1.784844   -5.410638   -6.94497 H        1 UNL1     0.0428
     86 H         -0.124595   -4.423751   -5.365578 H        1 UNL1     0.0317
     87 H         -1.165646   -3.15542   -4.907429 H        1 UNL1     0.0317
     88 H         -4.2901   -5.584408   -6.421429 H        1 UNL1     0.0429
     89 H         -5.187655   -4.131105   -5.975849 H        1 UNL1     0.0429
     90 H         -4.771911   -5.405269   -8.624417 H        1 UNL1     0.0308
     91 H         -6.633869   -3.125962   -8.575359 H        1 UNL1     0.0233
     92 H         -6.975041   -4.859959   -8.804161 H        1 UNL1     0.0233
     93 H         -6.923576   -4.176026   -7.193512 H        1 UNL1     0.0233
     94 H         -4.452405   -2.407322   -8.638964 H        1 UNL1     0.0233
     95 H         -3.074142   -3.518435   -8.651123 H        1 UNL1     0.0233
     96 H         -4.254095   -3.552071   -9.981751 H        1 UNL1     0.0233
     97 H         5.765507   0.803342   -11.556223 H        1 UNL1     0.0280
     98 H         4.807055   2.105325   -10.905534 H        1 UNL1     0.0280
     99 H         6.117359   1.38996   -9.920097 H        1 UNL1     0.0280
     100 H         3.481018   -1.719816   -12.4529 H        1 UNL1     0.2922
     101 H         4.055957   -4.678249   -3.302192 H        1 UNL1     0.0236
     102 H         3.085841   -4.509699   -1.786762 H        1 UNL1     0.0236
     103 H         4.197206   -3.274289   -2.290872 H        1 UNL1     0.0236
     104 H         0.124003   -3.463082   -1.655236 H        1 UNL1     0.2098
     105 H         0.286767   0.757958   -1.534292 H        1 UNL1     0.0234
     106 H         -0.57754   -0.797135   -1.3738 H        1 UNL1     0.0234
     107 H         -0.0   0.0   0.0 H        1 UNL1     0.0234
     108 H         4.49321   0.828928   -1.191231 H        1 UNL1     0.2098
     109 H         -0.305937   2.438708   -3.35978 H        1 UNL1     0.0234
     110 H         1.153994   1.655568   -4.043955 H        1 UNL1     0.0234
     111 H         0.395107   1.008492   -2.631784 H        1 UNL1     0.0234
     112 H         -2.106537   1.954997   1.812504 H        1 UNL1     0.0342
     113 H         -1.690526   3.560008   2.511872 H        1 UNL1     0.0342
     114 H         -2.043357   3.400711   0.789053 H        1 UNL1     0.0342
     115 H         4.103353   3.305865   -0.199948 H        1 UNL1     0.0234
     116 H         3.698261   3.083447   1.505108 H        1 UNL1     0.0234
     117 H         4.744061   1.957381   0.615206 H        1 UNL1     0.0234
     118 H         2.120221   2.034452   -7.647682 H        1 UNL1     0.0309
     119 H         2.404532   2.638748   -5.98574 H        1 UNL1     0.0309
     120 H         3.361787   3.192791   -7.341784 H        1 UNL1     0.0309
     121 H         6.076311   3.270854   -1.736092 H        1 UNL1     0.0524
     122 H         5.600389   2.850138   -3.38635 H        1 UNL1     0.0524
     123 H         5.268409   4.485837   -2.763437 H        1 UNL1     0.0524
@<TRIPOS>BOND
     1     1     2    1
     2     1    42    1
     3     2     3    2
     4     3     4    1
     5     4     5    2
     6     5     7    1
     7     6    75    1
     8     6    76    1
     9     6    77    1
    10     7     9   am
    11     9    10    1
    12    10    11    2
    13    10    43    1
    14    11    14    1
    15    11    15    1
    16    12    13   ar
    17    12    27   ar
    18    12    43    1
    19    13    14    1
    20    13    30   ar
    21    14    17    2
    22    15    16    1
    23    16    17    1
    24    16    18    1
    25    16    22    1
    26    18    19    1
    27    19    20    1
    28    20    21    1
    29    21    22    1
    30    23    24    1
    31    23    88    1
    32    23    89    1
    33    24    25    1
    34    24    26    1
    35    24    90    1
    36    25    91    1
    37    25    92    1
    38    25    93    1
    39    26    94    1
    40    26    95    1
    41    26    96    1
    42    27    28   ar
    43    28    29   ar
    44    29    30   ar
    45    29    31    1
    46    30    33    1
    47    31    32    1
    48    32    33    1
    49    32    35    1
    50    34    97    1
    51    34    98    1
    52    34    99    1
    53    35    61    1
    54    36    37    1
    55    36    60    1
    56    37    38    1
    57    38    39    1
    58    39    40    1
    59    40    41    1
    60    41    42    1
    61    45   100    1
    62    47   101    1
    63    47   102    1
    64    47   103    1
    65    48   104    1
    66    49   105    1
    67    49   106    1
    68    49   107    1
    69    50   108    1
    70    51    59    1
    71    52   109    1
    72    52   110    1
    73    52   111    1
    74    53    54    1
    75    54    55    2
    76    54    56    1
    77    56   112    1
    78    56   113    1
    79    56   114    1
    80    57   115    1
    81    57   116    1
    82    57   117    1
    83    58   118    1
    84    58   119    1
    85    58   120    1
    86    59   121    1
    87    59   122    1
    88    59   123    1
    89    60    61    2
    90     1    47    1
    91     1    62    1
    92     2    63    1
    93     3    64    1
    94     4    65    1
    95     5     6    1
    96     7     8    2
    97     9    78    1
    98    15    79    1
    99    18    80    1
   100    18    81    1
   101    19    82    1
   102    19    83    1
   103    20    23    1
   104    21    84    1
   105    21    85    1
   106    22    86    1
   107    22    87    1
   108    27    45    1
   109    28    34    1
   110    32    58    1
   111    33    46    2
   112    36    51    1
   113    36    66    1
   114    37    52    1
   115    37    67    1
   116    38    53    1
   117    38    68    1
   118    42    48    1
   119    42    72    1
   120    43    44    2
   121    60    73    1
   122    61    74    1
   123    39    69    1
   124    39    57    1
   125    40    70    1
   126    40    50    1
   127    41    71    1
   128    41    49    1
