@<TRIPOS>MOLECULE
*****
 123 128 0 0 0
SMALL
GASTEIGER

@<TRIPOS>ATOM
     1 C         4.959831   2.323634   -0.008452 C.3        1 UNL1     0.0009
     2 C         6.409846   2.846523   -1.03854 C.2        1 UNL1     -0.0787
     3 C         7.752858   2.613985   -1.526691 C.2        1 UNL1     -0.0649
     4 C         8.608099   3.50528   -2.684496 C.2        1 UNL1     -0.0542
     5 C         9.689246   3.4843   -3.599788 C.2        1 UNL1     0.0115
     6 C         10.936098   2.676311   -4.05348 C.3        1 UNL1     -0.0348
     7 C         9.736114   4.580082   -4.771988 C.2        1 UNL1     0.2441
     8 O         10.459957   5.56551   -4.733139 O.2        1 UNL1     -0.2702
     9 N         9.087621   4.199924   -5.95988 N.am        1 UNL1     -0.2772
     10 C         7.756697   4.545901   -5.912297 C.2        1 UNL1     0.1049
     11 C         6.958176   3.702459   -5.283653 C.2        1 UNL1     0.0801
     12 C         6.219392   6.449363   -5.391857 C.ar        1 UNL1     0.0753
     13 C         5.503338   5.53863   -4.551356 C.ar        1 UNL1     0.0305
     14 C         5.773477   4.102816   -4.574021 C.2        1 UNL1     0.0924
     15 N         7.189451   2.44919   -4.856622 N.pl3        1 UNL1     -0.3170
     16 C         5.941291   1.906747   -4.389603 C.3        1 UNL1     0.1275
     17 N         5.148487   3.111533   -3.944995 N.2        1 UNL1     -0.2557
     18 C         5.210231   1.343544   -5.604533 C.3        1 UNL1     0.0016
     19 C         6.115533   0.333844   -6.291937 C.3        1 UNL1     0.0026
     20 N         6.445043   -0.720914   -5.343286 N.3        1 UNL1     -0.3018
     21 C         7.096753   -0.268688   -4.112378 C.3        1 UNL1     0.0026
     22 C         6.168021   0.741143   -3.435921 C.3        1 UNL1     0.0016
     23 C         7.049986   -1.877418   -5.973512 C.3        1 UNL1     0.0012
     24 C         6.01365   -2.633239   -6.819974 C.3        1 UNL1     -0.0339
     25 C         6.078347   -2.211184   -8.297046 C.3        1 UNL1     -0.0615
     26 C         6.201861   -4.13161   -6.657986 C.3        1 UNL1     -0.0615
     27 C         5.874885   7.797556   -5.453575 C.ar        1 UNL1     0.1347
     28 C         4.812305   8.341337   -4.754092 C.ar        1 UNL1     0.0342
     29 C         4.152577   7.436118   -3.895895 C.ar        1 UNL1     0.1435
     30 C         4.509536   6.090793   -3.79638 C.ar        1 UNL1     0.0774
     31 O         3.029836   7.786079   -3.231075 O.3        1 UNL1     -0.4436
     32 C         2.414329   6.538457   -2.876864 C.3        1 UNL1     0.3143
     33 C         3.54155   5.525749   -2.879595 C.2        1 UNL1     0.2504
     34 C         4.229731   9.711767   -4.960564 C.3        1 UNL1     -0.0327
     35 O         1.962309   6.655918   -1.522194 O.2        1 UNL1     -0.4528
     36 C         -1.082929   4.407265   -1.242588 C.3        1 UNL1     0.0854
     37 C         -1.211339   2.862895   -1.53577 C.3        1 UNL1     0.0236
     38 C         -1.792868   1.990649   -0.322199 C.3        1 UNL1     0.1131
     39 C         -1.158052   2.130373   1.119937 C.3        1 UNL1     0.0200
     40 C         0.497854   2.189746   1.312001 C.3        1 UNL1     0.0661
     41 C         1.616029   1.10813   0.635686 C.3        1 UNL1     0.0091
     42 C         3.339354   1.378437   0.067805 C.3        1 UNL1     0.0661
     43 C         7.283899   5.893281   -6.263555 C.2        1 UNL1     0.2131
     44 O         7.685368   6.445871   -7.271624 O.2        1 UNL1     -0.2851
     45 O         6.651409   8.625466   -6.261667 O.3        1 UNL1     -0.5056
     46 O         3.630514   4.495563   -2.249789 O.2        1 UNL1     -0.2836
     47 C         5.247383   2.577627   1.495803 C.3        1 UNL1     -0.0566
     48 O         3.877237   0.185627   0.765661 O.3        1 UNL1     -0.3909
     49 C         0.921956   0.293474   -0.433001 C.3        1 UNL1     -0.0577
     50 O         0.970012   3.515779   1.183838 O.3        1 UNL1     -0.3910
     51 O         -1.32475   4.803826   0.088461 O.3        1 UNL1     -0.3753
     52 C         -0.053446   2.346131   -2.45075 C.3        1 UNL1     -0.0564
     53 O         -2.231992   0.614216   -0.728313 O.3        1 UNL1     -0.4608
     54 C         -2.39109   -0.451707   0.118105 C.2        1 UNL1     0.3042
     55 O         -1.709678   -1.475013   0.166702 O.2        1 UNL1     -0.2512
     56 C         -3.502866   -0.269809   1.111876 C.3        1 UNL1     0.0332
     57 C         -2.041244   3.185357   1.935507 C.3        1 UNL1     -0.0567
     58 C         1.432222   6.194852   -4.020949 C.3        1 UNL1     0.0210
     59 C         -1.819654   6.1338   0.237143 C.3        1 UNL1     0.0372
     60 C         0.213894   5.017747   -1.64349 C.2        1 UNL1     -0.0208
     61 C         1.006944   5.868895   -0.991289 C.2        1 UNL1     0.0882
     62 H         4.409069   3.19875   -0.37389 H        1 UNL1     0.0365
     63 H         6.060619   3.813926   -1.405475 H        1 UNL1     0.0576
     64 H         8.296951   1.696762   -1.290531 H        1 UNL1     0.0615
     65 H         8.026502   4.425476   -2.786804 H        1 UNL1     0.0622
     66 H         -1.845912   4.873874   -1.881477 H        1 UNL1     0.0645
     67 H         -2.034734   2.796583   -2.268016 H        1 UNL1     0.0362
     68 H         -2.797681   2.432876   -0.242774 H        1 UNL1     0.0741
     69 H         -1.433958   1.264569   1.707022 H        1 UNL1     0.0359
     70 H         0.572104   1.973144   2.394882 H        1 UNL1     0.0600
     71 H         1.69132   0.369072   1.45732 H        1 UNL1     0.0348
     72 H         3.106546   2.216979   0.740088 H        1 UNL1     0.0602
     73 H         0.415337   4.775482   -2.657381 H        1 UNL1     0.0628
     74 H         0.902937   6.123428   0.063999 H        1 UNL1     0.1022
     75 H         11.044257   1.747086   -3.443663 H        1 UNL1     0.0279
     76 H         10.919763   2.288995   -5.069742 H        1 UNL1     0.0279
     77 H         11.881436   3.192706   -3.831279 H        1 UNL1     0.0279
     78 H         9.137671   3.189093   -6.068482 H        1 UNL1     0.1553
     79 H         7.939035   1.874658   -5.195695 H        1 UNL1     0.1484
     80 H         4.272177   0.880971   -5.274614 H        1 UNL1     0.0317
     81 H         4.937296   2.142635   -6.302109 H        1 UNL1     0.0317
     82 H         7.025428   0.807181   -6.689371 H        1 UNL1     0.0428
     83 H         5.575515   -0.053893   -7.156281 H        1 UNL1     0.0428
     84 H         7.260966   -1.068549   -3.383634 H        1 UNL1     0.0428
     85 H         8.103291   0.127828   -4.304663 H        1 UNL1     0.0428
     86 H         6.612393   0.948118   -2.480053 H        1 UNL1     0.0317
     87 H         5.217541   0.259858   -3.175062 H        1 UNL1     0.0317
     88 H         7.851997   -1.525248   -6.635365 H        1 UNL1     0.0429
     89 H         7.513405   -2.539499   -5.23077 H        1 UNL1     0.0429
     90 H         5.009445   -2.414474   -6.437971 H        1 UNL1     0.0308
     91 H         7.076129   -2.376254   -8.714521 H        1 UNL1     0.0233
     92 H         5.345739   -2.764441   -8.889331 H        1 UNL1     0.0233
     93 H         5.846176   -1.148654   -8.438334 H        1 UNL1     0.0233
     94 H         5.599012   -4.670102   -7.397199 H        1 UNL1     0.0233
     95 H         7.250399   -4.396236   -6.820789 H        1 UNL1     0.0233
     96 H         5.904366   -4.465577   -5.660022 H        1 UNL1     0.0233
     97 H         3.375299   9.892745   -4.315256 H        1 UNL1     0.0280
     98 H         4.951761   10.506921   -4.733278 H        1 UNL1     0.0280
     99 H         3.901157   9.819232   -6.007266 H        1 UNL1     0.0280
     100 H         6.165045   9.119097   -6.898377 H        1 UNL1     0.2922
     101 H         4.373513   2.306874   2.088003 H        1 UNL1     0.0236
     102 H         5.58282   3.593365   1.702543 H        1 UNL1     0.0236
     103 H         6.055424   1.931612   1.877808 H        1 UNL1     0.0236
     104 H         4.219846   0.480343   1.632108 H        1 UNL1     0.2098
     105 H         0.701376   0.843332   -1.34449 H        1 UNL1     0.0234
     106 H         1.406997   -0.653141   -0.670871 H        1 UNL1     0.0234
     107 H         0.0   -0.0   0.0 H        1 UNL1     0.0234
     108 H         0.791934   3.799743   0.266548 H        1 UNL1     0.2098
     109 H         0.936135   2.509464   -2.00157 H        1 UNL1     0.0234
     110 H         -0.161004   1.291634   -2.726815 H        1 UNL1     0.0234
     111 H         -0.033157   2.872789   -3.414164 H        1 UNL1     0.0234
     112 H         -3.572572   -1.150412   1.75765 H        1 UNL1     0.0342
     113 H         -3.381217   0.637995   1.70089 H        1 UNL1     0.0342
     114 H         -4.447596   -0.182941   0.557706 H        1 UNL1     0.0342
     115 H         -3.083759   2.853532   2.036712 H        1 UNL1     0.0234
     116 H         -1.665433   3.397753   2.938354 H        1 UNL1     0.0234
     117 H         -2.173727   4.147104   1.41069 H        1 UNL1     0.0234
     118 H         0.463779   6.712329   -3.905441 H        1 UNL1     0.0309
     119 H         1.837534   6.411019   -5.014526 H        1 UNL1     0.0309
     120 H         1.152931   5.135609   -4.031265 H        1 UNL1     0.0309
     121 H         -1.059522   6.813337   -0.147285 H        1 UNL1     0.0524
     122 H         -2.741625   6.304444   -0.343276 H        1 UNL1     0.0524
     123 H         -2.017592   6.346343   1.283919 H        1 UNL1     0.0524
@<TRIPOS>BOND
     1     1     2    1
     2     1    42    1
     3     2     3    2
     4     3     4    1
     5     4     5    2
     6     5     7    1
     7     6    75    1
     8     6    76    1
     9     6    77    1
    10     7     9   am
    11     9    10    1
    12    10    11    2
    13    10    43    1
    14    11    14    1
    15    11    15    1
    16    12    13   ar
    17    12    27   ar
    18    12    43    1
    19    13    14    1
    20    13    30   ar
    21    14    17    2
    22    15    16    1
    23    16    17    1
    24    16    18    1
    25    16    22    1
    26    18    19    1
    27    19    20    1
    28    20    21    1
    29    21    22    1
    30    23    24    1
    31    23    88    1
    32    23    89    1
    33    24    25    1
    34    24    26    1
    35    24    90    1
    36    25    91    1
    37    25    92    1
    38    25    93    1
    39    26    94    1
    40    26    95    1
    41    26    96    1
    42    27    28   ar
    43    28    29   ar
    44    29    30   ar
    45    29    31    1
    46    30    33    1
    47    31    32    1
    48    32    33    1
    49    32    35    1
    50    34    97    1
    51    34    98    1
    52    34    99    1
    53    35    61    1
    54    36    37    1
    55    36    60    1
    56    37    38    1
    57    38    39    1
    58    39    40    1
    59    40    41    1
    60    41    42    1
    61    45   100    1
    62    47   101    1
    63    47   102    1
    64    47   103    1
    65    48   104    1
    66    49   105    1
    67    49   106    1
    68    49   107    1
    69    50   108    1
    70    51    59    1
    71    52   109    1
    72    52   110    1
    73    52   111    1
    74    53    54    1
    75    54    55    2
    76    54    56    1
    77    56   112    1
    78    56   113    1
    79    56   114    1
    80    57   115    1
    81    57   116    1
    82    57   117    1
    83    58   118    1
    84    58   119    1
    85    58   120    1
    86    59   121    1
    87    59   122    1
    88    59   123    1
    89    60    61    2
    90     1    47    1
    91     1    62    1
    92     2    63    1
    93     3    64    1
    94     4    65    1
    95     5     6    1
    96     7     8    2
    97     9    78    1
    98    15    79    1
    99    18    80    1
   100    18    81    1
   101    19    82    1
   102    19    83    1
   103    20    23    1
   104    21    84    1
   105    21    85    1
   106    22    86    1
   107    22    87    1
   108    27    45    1
   109    28    34    1
   110    32    58    1
   111    33    46    2
   112    36    51    1
   113    36    66    1
   114    37    52    1
   115    37    67    1
   116    38    53    1
   117    38    68    1
   118    42    48    1
   119    42    72    1
   120    43    44    2
   121    60    73    1
   122    61    74    1
   123    39    69    1
   124    39    57    1
   125    40    70    1
   126    40    50    1
   127    41    71    1
   128    41    49    1
