@<TRIPOS>MOLECULE
*****
 123 128 0 0 0
SMALL
GASTEIGER

@<TRIPOS>ATOM
     1 C         0.8917   -3.297219   -4.254954 C.3        1 UNL1     0.0009
     2 C         0.184649   -4.674242   -5.27521 C.2        1 UNL1     -0.0787
     3 C         0.171282   -6.067791   -5.667496 C.2        1 UNL1     -0.0649
     4 C         -0.924137   -6.849076   -6.69512 C.2        1 UNL1     -0.0542
     5 C         -1.462575   -8.101018   -7.082162 C.2        1 UNL1     0.0115
     6 C         -1.297561   -9.638873   -6.936922 C.3        1 UNL1     -0.0348
     7 C         -2.851243   -8.134114   -7.886833 C.2        1 UNL1     0.2441
     8 O         -2.915958   -8.312856   -9.095298 O.2        1 UNL1     -0.2702
     9 N         -3.998954   -8.205299   -7.078226 N.am        1 UNL1     -0.2772
     10 C         -4.419362   -6.942531   -6.728947 C.2        1 UNL1     0.1049
     11 C         -3.806976   -6.389688   -5.697652 C.2        1 UNL1     0.0801
     12 C         -4.930983   -4.687524   -7.683159 C.ar        1 UNL1     0.0753
     13 C         -4.082301   -4.150146   -6.663565 C.ar        1 UNL1     0.0305
     14 C         -3.598624   -4.973908   -5.557887 C.2        1 UNL1     0.0924
     15 N         -2.977334   -6.935103   -4.791702 N.pl3        1 UNL1     -0.3170
     16 C         -2.724823   -5.947365   -3.776386 C.3        1 UNL1     0.1275
     17 N         -2.894538   -4.625522   -4.48466 N.2        1 UNL1     -0.2557
     18 C         -3.864608   -6.035854   -2.766059 C.3        1 UNL1     0.0016
     19 C         -3.945146   -7.462808   -2.247496 C.3        1 UNL1     0.0026
     20 N         -2.671468   -7.80949   -1.632203 N.3        1 UNL1     -0.3018
     21 C         -1.505193   -7.694929   -2.510295 C.3        1 UNL1     0.0026
     22 C         -1.441045   -6.252681   -3.015964 C.3        1 UNL1     0.0016
     23 C         -2.736848   -9.026444   -0.847734 C.3        1 UNL1     0.0012
     24 C         -4.197778   -9.456342   -0.641266 C.3        1 UNL1     -0.0339
     25 C         -4.397043   -10.945793   -0.966667 C.3        1 UNL1     -0.0615
     26 C         -4.641939   -9.129016   0.773781 C.3        1 UNL1     -0.0615
     27 C         -5.485634   -3.870351   -8.665355 C.ar        1 UNL1     0.1347
     28 C         -5.296621   -2.50048   -8.707538 C.ar        1 UNL1     0.0342
     29 C         -4.418174   -2.000748   -7.722772 C.ar        1 UNL1     0.1435
     30 C         -3.826446   -2.812682   -6.75435 C.ar        1 UNL1     0.0774
     31 O         -4.218911   -0.674073   -7.563918 O.3        1 UNL1     -0.4436
     32 C         -3.686613   -0.543612   -6.237075 C.3        1 UNL1     0.3143
     33 C         -3.079983   -1.895276   -5.91893 C.2        1 UNL1     0.2504
     34 C         -6.054745   -1.532033   -9.572094 C.3        1 UNL1     -0.0327
     35 O         -2.605111   0.394127   -6.302272 O.2        1 UNL1     -0.4528
     36 C         -2.497529   2.095988   -2.91108 C.3        1 UNL1     0.0854
     37 C         -2.336471   1.45471   -1.479177 C.3        1 UNL1     0.0236
     38 C         -1.121733   2.038376   -0.609987 C.3        1 UNL1     0.1131
     39 C         0.327053   2.118508   -1.239961 C.3        1 UNL1     0.0200
     40 C         0.932784   0.844698   -2.13043 C.3        1 UNL1     0.0661
     41 C         0.941573   -0.783947   -1.656039 C.3        1 UNL1     0.0091
     42 C         0.807086   -2.315622   -2.656683 C.3        1 UNL1     0.0661
     43 C         -5.273297   -6.129531   -7.607684 C.2        1 UNL1     0.2131
     44 O         -6.252746   -6.617629   -8.141705 O.2        1 UNL1     -0.2851
     45 O         -6.263437   -4.4796   -9.647839 O.3        1 UNL1     -0.5056
     46 O         -2.170383   -2.153856   -5.162876 O.2        1 UNL1     -0.2836
     47 C         2.269046   -2.858824   -4.821266 C.3        1 UNL1     -0.0566
     48 O         1.949208   -2.987078   -1.990483 O.3        1 UNL1     -0.3909
     49 C         0.021094   -0.951045   -0.467641 C.3        1 UNL1     -0.0577
     50 O         0.544911   0.951186   -3.485398 O.3        1 UNL1     -0.3910
     51 O         -1.464623   2.965644   -3.316339 O.3        1 UNL1     -0.3753
     52 C         -2.704925   -0.064892   -1.477431 C.3        1 UNL1     -0.0564
     53 O         -1.198462   1.680645   0.845509 O.3        1 UNL1     -0.4608
     54 C         -0.160423   1.751046   1.737387 C.2        1 UNL1     0.3042
     55 O         0.516275   0.819387   2.170897 O.2        1 UNL1     -0.2512
     56 C         0.179638   3.153443   2.154944 C.3        1 UNL1     0.0332
     57 C         0.517194   3.594533   -1.825941 C.3        1 UNL1     -0.0567
     58 C         -4.895473   -0.306813   -5.302135 C.3        1 UNL1     0.0210
     59 C         -1.841422   3.925061   -4.302953 C.3        1 UNL1     0.0372
     60 C         -2.696842   1.121116   -4.017903 C.2        1 UNL1     -0.0208
     61 C         -2.141495   1.062938   -5.22908 C.2        1 UNL1     0.0882
     62 H         0.145581   -2.619581   -4.687187 H        1 UNL1     0.0365
     63 H         -0.536051   -4.126055   -5.885579 H        1 UNL1     0.0576
     64 H         0.810002   -6.806401   -5.178007 H        1 UNL1     0.0615
     65 H         -1.451466   -6.027295   -7.18714 H        1 UNL1     0.0622
     66 H         -3.428441   2.677137   -2.850128 H        1 UNL1     0.0645
     67 H         -3.209015   1.830873   -0.917281 H        1 UNL1     0.0362
     68 H         -1.453725   3.082838   -0.507995 H        1 UNL1     0.0741
     69 H         1.049503   2.213553   -0.440311 H        1 UNL1     0.0359
     70 H         2.008398   1.105685   -2.129294 H        1 UNL1     0.0600
     71 H         1.935471   -0.838354   -1.170073 H        1 UNL1     0.0348
     72 H         1.10711   -1.521826   -3.356104 H        1 UNL1     0.0602
     73 H         -3.496934   0.469035   -3.769122 H        1 UNL1     0.0628
     74 H         -1.28087   1.655121   -5.54194 H        1 UNL1     0.1022
     75 H         -1.981356   -10.174528   -7.638729 H        1 UNL1     0.0279
     76 H         -0.32487   -10.049286   -7.198653 H        1 UNL1     0.0279
     77 H         -1.647835   -10.014182   -5.964219 H        1 UNL1     0.0279
     78 H         -3.781081   -8.704415   -6.218289 H        1 UNL1     0.1553
     79 H         -2.91212   -7.921419   -4.618899 H        1 UNL1     0.1484
     80 H         -3.677612   -5.324145   -1.952875 H        1 UNL1     0.0317
     81 H         -4.816531   -5.745881   -3.223673 H        1 UNL1     0.0317
     82 H         -4.204745   -8.172433   -3.046841 H        1 UNL1     0.0428
     83 H         -4.765305   -7.503937   -1.530072 H        1 UNL1     0.0428
     84 H         -0.553938   -7.883335   -2.00292 H        1 UNL1     0.0428
     85 H         -1.527933   -8.438234   -3.319181 H        1 UNL1     0.0428
     86 H         -0.50874   -6.172008   -3.543494 H        1 UNL1     0.0317
     87 H         -1.314954   -5.564644   -2.171095 H        1 UNL1     0.0317
     88 H         -2.214503   -9.817887   -1.400969 H        1 UNL1     0.0429
     89 H         -2.218819   -8.909937   0.112915 H        1 UNL1     0.0429
     90 H         -4.842939   -8.865223   -1.301992 H        1 UNL1     0.0308
     91 H         -3.489203   -11.522006   -0.764412 H        1 UNL1     0.0233
     92 H         -5.222752   -11.361322   -0.384302 H        1 UNL1     0.0233
     93 H         -4.651608   -11.112654   -2.020322 H        1 UNL1     0.0233
     94 H         -5.50241   -9.747068   1.052055 H        1 UNL1     0.0233
     95 H         -3.832596   -9.341292   1.477958 H        1 UNL1     0.0233
     96 H         -4.926406   -8.077409   0.869542 H        1 UNL1     0.0233
     97 H         -5.688217   -1.525119   -10.594268 H        1 UNL1     0.0280
     98 H         -7.121591   -1.782779   -9.637065 H        1 UNL1     0.0280
     99 H         -5.953755   -0.513886   -9.161883 H        1 UNL1     0.0280
     100 H         -7.040937   -4.901099   -9.326196 H        1 UNL1     0.2922
     101 H         2.751309   -3.704584   -5.310927 H        1 UNL1     0.0236
     102 H         2.913025   -2.39776   -4.073139 H        1 UNL1     0.0236
     103 H         2.168079   -2.097548   -5.612757 H        1 UNL1     0.0236
     104 H         1.650958   -3.877529   -1.720087 H        1 UNL1     0.2098
     105 H         -1.000808   -1.217938   -0.725119 H        1 UNL1     0.0234
     106 H         0.399284   -1.612337   0.311842 H        1 UNL1     0.0234
     107 H         0.0   0.0   0.0 H        1 UNL1     0.0234
     108 H         0.63878   1.889021   -3.741175 H        1 UNL1     0.2098
     109 H         -2.334095   -0.581804   -0.58133 H        1 UNL1     0.0234
     110 H         -3.779327   -0.247377   -1.587444 H        1 UNL1     0.0234
     111 H         -2.256797   -0.590979   -2.330871 H        1 UNL1     0.0234
     112 H         -0.737094   3.708801   2.375228 H        1 UNL1     0.0342
     113 H         0.862297   3.174065   3.003116 H        1 UNL1     0.0342
     114 H         0.680254   3.650386   1.312569 H        1 UNL1     0.0342
     115 H         0.542659   3.597727   -2.924362 H        1 UNL1     0.0234
     116 H         -0.255909   4.299273   -1.513367 H        1 UNL1     0.0234
     117 H         1.499134   4.038905   -1.588731 H        1 UNL1     0.0234
     118 H         -5.087598   0.767807   -5.136952 H        1 UNL1     0.0309
     119 H         -5.813912   -0.784267   -5.658098 H        1 UNL1     0.0309
     120 H         -4.726163   -0.691532   -4.290487 H        1 UNL1     0.0309
     121 H         -0.942965   4.201523   -4.854042 H        1 UNL1     0.0524
     122 H         -2.563836   3.516717   -5.029184 H        1 UNL1     0.0524
     123 H         -2.274897   4.801167   -3.828998 H        1 UNL1     0.0524
@<TRIPOS>BOND
     1     1     2    1
     2     1    42    1
     3     2     3    2
     4     3     4    1
     5     4     5    2
     6     5     7    1
     7     6    75    1
     8     6    76    1
     9     6    77    1
    10     7     9   am
    11     9    10    1
    12    10    11    2
    13    10    43    1
    14    11    14    1
    15    11    15    1
    16    12    13   ar
    17    12    27   ar
    18    12    43    1
    19    13    14    1
    20    13    30   ar
    21    14    17    2
    22    15    16    1
    23    16    17    1
    24    16    18    1
    25    16    22    1
    26    18    19    1
    27    19    20    1
    28    20    21    1
    29    21    22    1
    30    23    24    1
    31    23    88    1
    32    23    89    1
    33    24    25    1
    34    24    26    1
    35    24    90    1
    36    25    91    1
    37    25    92    1
    38    25    93    1
    39    26    94    1
    40    26    95    1
    41    26    96    1
    42    27    28   ar
    43    28    29   ar
    44    29    30   ar
    45    29    31    1
    46    30    33    1
    47    31    32    1
    48    32    33    1
    49    32    35    1
    50    34    97    1
    51    34    98    1
    52    34    99    1
    53    35    61    1
    54    36    37    1
    55    36    60    1
    56    37    38    1
    57    38    39    1
    58    39    40    1
    59    40    41    1
    60    41    42    1
    61    45   100    1
    62    47   101    1
    63    47   102    1
    64    47   103    1
    65    48   104    1
    66    49   105    1
    67    49   106    1
    68    49   107    1
    69    50   108    1
    70    51    59    1
    71    52   109    1
    72    52   110    1
    73    52   111    1
    74    53    54    1
    75    54    55    2
    76    54    56    1
    77    56   112    1
    78    56   113    1
    79    56   114    1
    80    57   115    1
    81    57   116    1
    82    57   117    1
    83    58   118    1
    84    58   119    1
    85    58   120    1
    86    59   121    1
    87    59   122    1
    88    59   123    1
    89    60    61    2
    90     1    47    1
    91     1    62    1
    92     2    63    1
    93     3    64    1
    94     4    65    1
    95     5     6    1
    96     7     8    2
    97     9    78    1
    98    15    79    1
    99    18    80    1
   100    18    81    1
   101    19    82    1
   102    19    83    1
   103    20    23    1
   104    21    84    1
   105    21    85    1
   106    22    86    1
   107    22    87    1
   108    27    45    1
   109    28    34    1
   110    32    58    1
   111    33    46    2
   112    36    51    1
   113    36    66    1
   114    37    52    1
   115    37    67    1
   116    38    53    1
   117    38    68    1
   118    42    48    1
   119    42    72    1
   120    43    44    2
   121    60    73    1
   122    61    74    1
   123    39    69    1
   124    39    57    1
   125    40    70    1
   126    40    50    1
   127    41    71    1
   128    41    49    1
