@<TRIPOS>MOLECULE
*****
 123 128 0 0 0
SMALL
GASTEIGER

@<TRIPOS>ATOM
     1 C         5.167923   1.744162   0.500053 C.3        1 UNL1     0.0009
     2 C         6.606523   2.549576   -0.347753 C.2        1 UNL1     -0.0787
     3 C         7.889376   2.450732   -1.011504 C.2        1 UNL1     -0.0649
     4 C         8.768896   3.685524   -1.765222 C.2        1 UNL1     -0.0542
     5 C         9.790605   3.977807   -2.702109 C.2        1 UNL1     0.0115
     6 C         10.919715   3.351895   -3.566209 C.3        1 UNL1     -0.0348
     7 C         9.88796   5.461234   -3.307879 C.2        1 UNL1     0.2441
     8 O         10.711837   6.282142   -2.928587 O.2        1 UNL1     -0.2702
     9 N         9.139728   5.669199   -4.479652 N.am        1 UNL1     -0.2772
     10 C         7.856799   6.056676   -4.167761 C.2        1 UNL1     0.1049
     11 C         7.00986   5.085755   -3.87754 C.2        1 UNL1     0.0801
     12 C         6.557342   7.663704   -2.758432 C.ar        1 UNL1     0.0753
     13 C         5.796774   6.536157   -2.312581 C.ar        1 UNL1     0.0305
     14 C         5.913784   5.230626   -2.958297 C.2        1 UNL1     0.0924
     15 N         7.131777   3.756752   -4.03696 N.pl3        1 UNL1     -0.3170
     16 C         5.860997   3.15837   -3.725016 C.3        1 UNL1     0.1275
     17 N         5.223742   4.113675   -2.74572 N.2        1 UNL1     -0.2557
     18 C         5.010179   3.218548   -4.990002 C.3        1 UNL1     0.0016
     19 C         5.766342   2.534358   -6.117694 C.3        1 UNL1     0.0026
     20 N         6.03489   1.155912   -5.731954 N.3        1 UNL1     -0.3018
     21 C         6.796183   0.994484   -4.491493 C.3        1 UNL1     0.0026
     22 C         6.016171   1.685122   -3.37145 C.3        1 UNL1     0.0016
     23 C         6.480553   0.336491   -6.841268 C.3        1 UNL1     0.0012
     24 C         5.325357   0.084591   -7.823014 C.3        1 UNL1     -0.0339
     25 C         5.343975   1.092617   -8.983873 C.3        1 UNL1     -0.0615
     26 C         5.372129   -1.347845   -8.325724 C.3        1 UNL1     -0.0615
     27 C         6.352742   8.931332   -2.21864 C.ar        1 UNL1     0.1347
     28 C         5.39237   9.201192   -1.260042 C.ar        1 UNL1     0.0342
     29 C         4.689273   8.067066   -0.801157 C.ar        1 UNL1     0.1435
     30 C         4.908591   6.785079   -1.306756 C.ar        1 UNL1     0.0774
     31 O         3.647025   8.181046   0.050743 O.3        1 UNL1     -0.4436
     32 C         2.924688   6.948799   -0.093031 C.3        1 UNL1     0.3143
     33 C         3.938106   5.955175   -0.623979 C.2        1 UNL1     0.2504
     34 C         4.94582   10.567445   -0.819534 C.3        1 UNL1     -0.0327
     35 O         2.561675   6.511847   1.222471 O.2        1 UNL1     -0.4528
     36 C         -0.682129   4.582142   0.819907 C.3        1 UNL1     0.0854
     37 C         -0.986933   3.322124   -0.078409 C.3        1 UNL1     0.0236
     38 C         -1.589625   2.061207   0.708098 C.3        1 UNL1     0.1131
     39 C         -0.866286   1.529251   2.010432 C.3        1 UNL1     0.0200
     40 C         0.794735   1.382498   2.054142 C.3        1 UNL1     0.0661
     41 C         1.75538   0.613429   0.886535 C.3        1 UNL1     0.0091
     42 C         3.464107   0.974977   0.325341 C.3        1 UNL1     0.0661
     43 C         7.508987   7.45575   -3.87798 C.2        1 UNL1     0.2131
     44 O         7.910637   8.353816   -4.595539 O.2        1 UNL1     -0.2851
     45 O         7.166467   9.966032   -2.675462 O.3        1 UNL1     -0.5056
     46 O         3.953027   4.751579   -0.493638 O.2        1 UNL1     -0.2836
     47 C         5.561729   1.313852   1.93871 C.3        1 UNL1     -0.0566
     48 O         3.911529   -0.436481   0.407288 O.3        1 UNL1     -0.3909
     49 C         0.922964   0.38191   -0.354826 C.3        1 UNL1     -0.0577
     50 O         1.395194   2.599779   2.448348 O.3        1 UNL1     -0.3910
     51 O         -0.808527   4.392028   2.211062 O.3        1 UNL1     -0.3753
     52 C         0.059205   3.16134   -1.229363 C.3        1 UNL1     -0.0564
     53 O         -2.191569   1.022998   -0.193074 O.3        1 UNL1     -0.4608
     54 C         -2.41534   -0.286959   0.141394 C.2        1 UNL1     0.3042
     55 O         -1.843186   -1.280188   -0.30579 O.2        1 UNL1     -0.2512
     56 C         -3.446528   -0.464735   1.219244 C.3        1 UNL1     0.0332
     57 C         -1.5888   2.198286   3.270804 C.3        1 UNL1     -0.0567
     58 C         1.851362   7.195073   -1.17878 C.3        1 UNL1     0.0210
     59 C         -1.160654   5.562933   2.94649 C.3        1 UNL1     0.0372
     60 C         0.647677   5.210356   0.591601 C.2        1 UNL1     -0.0208
     61 C         1.559568   5.644604   1.462593 C.2        1 UNL1     0.0882
     62 H         4.692576   2.728645   0.58695 H        1 UNL1     0.0365
     63 H         6.340871   3.603527   -0.242467 H        1 UNL1     0.0576
     64 H         8.346678   1.483636   -1.232201 H        1 UNL1     0.0615
     65 H         8.281933   4.601141   -1.418819 H        1 UNL1     0.0622
     66 H         -1.425758   5.329323   0.508806 H        1 UNL1     0.0645
     67 H         -1.851305   3.632342   -0.690933 H        1 UNL1     0.0362
     68 H         -2.536927   2.498635   1.058525 H        1 UNL1     0.0741
     69 H         -1.19884   0.518319   2.204938 H        1 UNL1     0.0359
     70 H         0.904664   0.721758   2.935277 H        1 UNL1     0.0600
     71 H         1.797562   -0.407927   1.313162 H        1 UNL1     0.0348
     72 H         3.357053   1.462894   1.305031 H        1 UNL1     0.0602
     73 H         0.767326   5.407906   -0.444693 H        1 UNL1     0.0628
     74 H         1.540207   5.433555   2.532322 H        1 UNL1     0.1022
     75 H         10.963161   2.246528   -3.413535 H        1 UNL1     0.0279
     76 H         10.807819   3.435167   -4.644919 H        1 UNL1     0.0279
     77 H         11.9245   3.655753   -3.237914 H        1 UNL1     0.0279
     78 H         9.077916   4.79949   -5.004878 H        1 UNL1     0.1553
     79 H         7.797697   3.32851   -4.653476 H        1 UNL1     0.1484
     80 H         4.048243   2.728237   -4.797543 H        1 UNL1     0.0317
     81 H         4.78474   4.255565   -5.260972 H        1 UNL1     0.0317
     82 H         6.697773   3.06508   -6.364037 H        1 UNL1     0.0428
     83 H         5.142616   2.590282   -7.01038 H        1 UNL1     0.0428
     84 H         6.91527   -0.048669   -4.182524 H        1 UNL1     0.0428
     85 H         7.8267   1.361811   -4.593575 H        1 UNL1     0.0428
     86 H         6.531002   1.434051   -2.46266 H        1 UNL1     0.0317
     87 H         5.036189   1.208146   -3.248058 H        1 UNL1     0.0317
     88 H         7.275638   0.879279   -7.369013 H        1 UNL1     0.0429
     89 H         6.91475   -0.608375   -6.489878 H        1 UNL1     0.0429
     90 H         4.372554   0.183863   -7.289605 H        1 UNL1     0.0308
     91 H         6.291889   1.05408   -9.528921 H        1 UNL1     0.0233
     92 H         4.523031   0.897737   -9.677905 H        1 UNL1     0.0233
     93 H         5.215826   2.126554   -8.641254 H        1 UNL1     0.0233
     94 H         4.675581   -1.477914   -9.161032 H        1 UNL1     0.0233
     95 H         6.377412   -1.5851   -8.684997 H        1 UNL1     0.0233
     96 H         5.102609   -2.05638   -7.537494 H        1 UNL1     0.0233
     97 H         4.151298   10.517967   -0.080943 H        1 UNL1     0.0280
     98 H         5.758253   11.13673   -0.349297 H        1 UNL1     0.0280
     99 H         4.5739   11.132565   -1.689827 H        1 UNL1     0.0280
     100 H         6.700473   10.716704   -2.999442 H        1 UNL1     0.2922
     101 H         4.698224   0.879227   2.441815 H        1 UNL1     0.0236
     102 H         6.0108   2.119075   2.519171 H        1 UNL1     0.0236
     103 H         6.318543   0.511713   1.938499 H        1 UNL1     0.0236
     104 H         4.332146   -0.562352   1.280334 H        1 UNL1     0.2098
     105 H         0.712487   1.280993   -0.928551 H        1 UNL1     0.0234
     106 H         1.292384   -0.406649   -1.010288 H        1 UNL1     0.0234
     107 H         0.0   -0.0   0.0 H        1 UNL1     0.0234
     108 H         1.195799   3.259158   1.756085 H        1 UNL1     0.2098
     109 H         1.082595   3.040798   -0.847456 H        1 UNL1     0.0234
     110 H         -0.176073   2.338507   -1.912982 H        1 UNL1     0.0234
     111 H         0.086448   4.046932   -1.878154 H        1 UNL1     0.0234
     112 H         -3.574119   -1.528771   1.440366 H        1 UNL1     0.0342
     113 H         -3.198017   0.094454   2.120018 H        1 UNL1     0.0342
     114 H         -4.405223   -0.081539   0.843441 H        1 UNL1     0.0342
     115 H         -2.653233   1.930605   3.320972 H        1 UNL1     0.0234
     116 H         -1.138933   1.937071   4.230719 H        1 UNL1     0.0234
     117 H         -1.648384   3.298646   3.210806 H        1 UNL1     0.0234
     118 H         0.949999   7.682477   -0.767697 H        1 UNL1     0.0309
     119 H         2.222465   7.783096   -2.024188 H        1 UNL1     0.0309
     120 H         1.462782   6.263546   -1.604656 H        1 UNL1     0.0309
     121 H         -0.361461   6.29091   2.809757 H        1 UNL1     0.0524
     122 H         -2.094067   6.021993   2.580373 H        1 UNL1     0.0524
     123 H         -1.27454   5.324826   4.000259 H        1 UNL1     0.0524
@<TRIPOS>BOND
     1     1     2    1
     2     1    42    1
     3     2     3    2
     4     3     4    1
     5     4     5    2
     6     5     7    1
     7     6    75    1
     8     6    76    1
     9     6    77    1
    10     7     9   am
    11     9    10    1
    12    10    11    2
    13    10    43    1
    14    11    14    1
    15    11    15    1
    16    12    13   ar
    17    12    27   ar
    18    12    43    1
    19    13    14    1
    20    13    30   ar
    21    14    17    2
    22    15    16    1
    23    16    17    1
    24    16    18    1
    25    16    22    1
    26    18    19    1
    27    19    20    1
    28    20    21    1
    29    21    22    1
    30    23    24    1
    31    23    88    1
    32    23    89    1
    33    24    25    1
    34    24    26    1
    35    24    90    1
    36    25    91    1
    37    25    92    1
    38    25    93    1
    39    26    94    1
    40    26    95    1
    41    26    96    1
    42    27    28   ar
    43    28    29   ar
    44    29    30   ar
    45    29    31    1
    46    30    33    1
    47    31    32    1
    48    32    33    1
    49    32    35    1
    50    34    97    1
    51    34    98    1
    52    34    99    1
    53    35    61    1
    54    36    37    1
    55    36    60    1
    56    37    38    1
    57    38    39    1
    58    39    40    1
    59    40    41    1
    60    41    42    1
    61    45   100    1
    62    47   101    1
    63    47   102    1
    64    47   103    1
    65    48   104    1
    66    49   105    1
    67    49   106    1
    68    49   107    1
    69    50   108    1
    70    51    59    1
    71    52   109    1
    72    52   110    1
    73    52   111    1
    74    53    54    1
    75    54    55    2
    76    54    56    1
    77    56   112    1
    78    56   113    1
    79    56   114    1
    80    57   115    1
    81    57   116    1
    82    57   117    1
    83    58   118    1
    84    58   119    1
    85    58   120    1
    86    59   121    1
    87    59   122    1
    88    59   123    1
    89    60    61    2
    90     1    47    1
    91     1    62    1
    92     2    63    1
    93     3    64    1
    94     4    65    1
    95     5     6    1
    96     7     8    2
    97     9    78    1
    98    15    79    1
    99    18    80    1
   100    18    81    1
   101    19    82    1
   102    19    83    1
   103    20    23    1
   104    21    84    1
   105    21    85    1
   106    22    86    1
   107    22    87    1
   108    27    45    1
   109    28    34    1
   110    32    58    1
   111    33    46    2
   112    36    51    1
   113    36    66    1
   114    37    52    1
   115    37    67    1
   116    38    53    1
   117    38    68    1
   118    42    48    1
   119    42    72    1
   120    43    44    2
   121    60    73    1
   122    61    74    1
   123    39    69    1
   124    39    57    1
   125    40    70    1
   126    40    50    1
   127    41    71    1
   128    41    49    1
