@<TRIPOS>MOLECULE
*****
 123 128 0 0 0
SMALL
GASTEIGER

@<TRIPOS>ATOM
     1 C         5.16742   1.748253   0.490397 C.3        1 UNL1     0.0009
     2 C         6.603988   2.554405   -0.360148 C.2        1 UNL1     -0.0787
     3 C         7.885666   2.456229   -1.026264 C.2        1 UNL1     -0.0649
     4 C         8.763084   3.691451   -1.781727 C.2        1 UNL1     -0.0542
     5 C         9.78289   3.984226   -2.720532 C.2        1 UNL1     0.0115
     6 C         10.910754   3.358875   -3.586662 C.3        1 UNL1     -0.0348
     7 C         9.878277   5.46765   -3.326622 C.2        1 UNL1     0.2441
     8 O         10.702386   6.289064   -2.948934 O.2        1 UNL1     -0.2702
     9 N         9.127758   5.675076   -4.497027 N.am        1 UNL1     -0.2772
     10 C         7.845187   6.061851   -4.182798 C.2        1 UNL1     0.1049
     11 C         6.999341   5.090475   -3.890917 C.2        1 UNL1     0.0801
     12 C         6.547426   7.668273   -2.771217 C.ar        1 UNL1     0.0753
     13 C         5.788328   6.540335   -2.323852 C.ar        1 UNL1     0.0305
     14 C         5.904887   5.23481   -2.96966 C.2        1 UNL1     0.0924
     15 N         7.121722   3.761527   -4.050436 N.pl3        1 UNL1     -0.3170
     16 C         5.851862   3.16245   -3.736083 C.3        1 UNL1     0.1275
     17 N         5.215877   4.117486   -2.755699 N.2        1 UNL1     -0.2557
     18 C         4.998669   3.222021   -4.999496 C.3        1 UNL1     0.0016
     19 C         5.753134   2.538154   -6.128522 C.3        1 UNL1     0.0026
     20 N         6.023181   1.159898   -5.743149 N.3        1 UNL1     -0.3018
     21 C         6.786862   0.999023   -4.504084 C.3        1 UNL1     0.0026
     22 C         6.008531   1.689324   -3.382665 C.3        1 UNL1     0.0016
     23 C         6.467257   0.340625   -6.853208 C.3        1 UNL1     0.0012
     24 C         5.3115   0.091611   -7.83503 C.3        1 UNL1     -0.0339
     25 C         5.347025   1.084103   -9.008809 C.3        1 UNL1     -0.0615
     26 C         5.340254   -1.347747   -8.318974 C.3        1 UNL1     -0.0615
     27 C         6.343103   8.935836   -2.231169 C.ar        1 UNL1     0.1347
     28 C         5.384354   9.205241   -1.270819 C.ar        1 UNL1     0.0342
     29 C         4.682755   8.070757   -0.810525 C.ar        1 UNL1     0.1435
     30 C         4.901867   6.788848   -1.316407 C.ar        1 UNL1     0.0774
     31 O         3.642021   8.184225   0.043293 O.3        1 UNL1     -0.4436
     32 C         2.920122   6.951553   -0.099027 C.3        1 UNL1     0.3143
     33 C         3.933122   5.958455   -0.631756 C.2        1 UNL1     0.2504
     34 C         4.937841   10.571281   -0.829615 C.3        1 UNL1     -0.0327
     35 O         2.559795   6.51452   1.217187 O.2        1 UNL1     -0.4528
     36 C         -0.683648   4.582927   0.820814 C.3        1 UNL1     0.0854
     37 C         -0.989396   3.322649   -0.076817 C.3        1 UNL1     0.0236
     38 C         -1.589911   2.061464   0.710925 C.3        1 UNL1     0.1131
     39 C         -0.863858   1.530045   2.011967 C.3        1 UNL1     0.0200
     40 C         0.797325   1.384244   2.052616 C.3        1 UNL1     0.0661
     41 C         1.756244   0.615611   0.883305 C.3        1 UNL1     0.0091
     42 C         3.463723   0.978079   0.318914 C.3        1 UNL1     0.0661
     43 C         7.497115   7.460754   -3.892506 C.2        1 UNL1     0.2131
     44 O         7.896923   8.35898   -4.610893 O.2        1 UNL1     -0.2851
     45 O         7.15539   9.970956   -2.689595 O.3        1 UNL1     -0.5056
     46 O         3.948971   4.754881   -0.501328 O.2        1 UNL1     -0.2836
     47 C         5.564135   1.318306   1.928363 C.3        1 UNL1     -0.0566
     48 O         3.912101   -0.433116   0.400166 O.3        1 UNL1     -0.3909
     49 C         0.921663   0.383498   -0.35649 C.3        1 UNL1     -0.0577
     50 O         1.397818   2.601905   2.445594 O.3        1 UNL1     -0.3910
     51 O         -0.807361   4.392875   2.212219 O.3        1 UNL1     -0.3753
     52 C         0.0547   3.16235   -1.22969 C.3        1 UNL1     -0.0564
     53 O         -2.19293   1.022826   -0.189032 O.3        1 UNL1     -0.4608
     54 C         -2.427436   -0.283988   0.150344 C.2        1 UNL1     0.3042
     55 O         -1.858614   -1.283078   -0.287945 O.2        1 UNL1     -0.2512
     56 C         -3.467167   -0.44978   1.221879 C.3        1 UNL1     0.0332
     57 C         -1.584418   2.19879   3.273612 C.3        1 UNL1     -0.0567
     58 C         1.844647   7.19711   -1.18281 C.3        1 UNL1     0.0210
     59 C         -1.120166   5.571718   2.952723 C.3        1 UNL1     0.0372
     60 C         0.645375   5.211877   0.589986 C.2        1 UNL1     -0.0208
     61 C         1.55863   5.646729   1.459247 C.2        1 UNL1     0.0882
     62 H         4.691674   2.732472   0.578081 H        1 UNL1     0.0365
     63 H         6.33793   3.608215   -0.25447 H        1 UNL1     0.0576
     64 H         8.34311   1.489373   -1.247716 H        1 UNL1     0.0615
     65 H         8.276241   4.606823   -1.434509 H        1 UNL1     0.0622
     66 H         -1.428277   5.329653   0.511019 H        1 UNL1     0.0645
     67 H         -1.855078   3.632315   -0.687769 H        1 UNL1     0.0362
     68 H         -2.536812   2.498385   1.063064 H        1 UNL1     0.0741
     69 H         -1.195475   0.518943   2.207186 H        1 UNL1     0.0359
     70 H         0.909261   0.723651   2.933608 H        1 UNL1     0.0600
     71 H         1.799799   -0.40568   1.30995 H        1 UNL1     0.0348
     72 H         3.358205   1.466029   1.298754 H        1 UNL1     0.0602
     73 H         0.762992   5.409395   -0.446547 H        1 UNL1     0.0628
     74 H         1.54137   5.435772   2.52903 H        1 UNL1     0.1022
     75 H         10.953036   2.253136   -3.436372 H        1 UNL1     0.0279
     76 H         10.79829   3.444575   -4.665122 H        1 UNL1     0.0279
     77 H         11.916087   3.660889   -3.25834 H        1 UNL1     0.0279
     78 H         9.065469   4.805281   -5.022055 H        1 UNL1     0.1553
     79 H         7.786743   3.333605   -4.668143 H        1 UNL1     0.1484
     80 H         4.037371   2.73118   -4.80521 H        1 UNL1     0.0317
     81 H         4.772137   4.258883   -5.270147 H        1 UNL1     0.0317
     82 H         6.683803   3.069383   -6.37664 H        1 UNL1     0.0428
     83 H         5.127723   2.593637   -7.020057 H        1 UNL1     0.0428
     84 H         6.907115   -0.044032   -4.195237 H        1 UNL1     0.0428
     85 H         7.816979   1.366928   -4.608109 H        1 UNL1     0.0428
     86 H         6.525188   1.438634   -2.474805 H        1 UNL1     0.0317
     87 H         5.029052   1.211802   -3.257413 H        1 UNL1     0.0317
     88 H         7.263245   0.882445   -7.380588 H        1 UNL1     0.0429
     89 H         6.899813   -0.605309   -6.502669 H        1 UNL1     0.0429
     90 H         4.358643   0.210686   -7.305787 H        1 UNL1     0.0308
     91 H         6.300027   1.033327   -9.543889 H        1 UNL1     0.0233
     92 H         4.531894   0.884442   -9.708313 H        1 UNL1     0.0233
     93 H         5.22115   2.123142   -8.681108 H        1 UNL1     0.0233
     94 H         4.645496   -1.478881   -9.155604 H        1 UNL1     0.0233
     95 H         6.343617   -1.603704   -8.6707 H        1 UNL1     0.0233
     96 H         5.057456   -2.042142   -7.522852 H        1 UNL1     0.0233
     97 H         4.138421   10.521558   -0.096344 H        1 UNL1     0.0280
     98 H         5.748398   11.137589   -0.352596 H        1 UNL1     0.0280
     99 H         4.572796   11.139482   -1.700812 H        1 UNL1     0.0280
     100 H         6.688389   10.722248   -3.010676 H        1 UNL1     0.2922
     101 H         4.701408   0.88466   2.433645 H        1 UNL1     0.0236
     102 H         6.01521   2.123427   2.507408 H        1 UNL1     0.0236
     103 H         6.320264   0.515523   1.92682 H        1 UNL1     0.0236
     104 H         4.331562   -0.559494   1.273694 H        1 UNL1     0.2098
     105 H         0.708663   1.282569   -0.929302 H        1 UNL1     0.0234
     106 H         1.290946   -0.404148   -1.013126 H        1 UNL1     0.0234
     107 H         0.0   -0.0   0.0 H        1 UNL1     0.0234
     108 H         1.199757   3.260188   1.751906 H        1 UNL1     0.2098
     109 H         1.079633   3.048621   -0.849834 H        1 UNL1     0.0234
     110 H         -0.178069   2.335466   -1.909267 H        1 UNL1     0.0234
     111 H         0.075827   4.045335   -1.882253 H        1 UNL1     0.0234
     112 H         -3.59962   -1.511566   1.450817 H        1 UNL1     0.0342
     113 H         -3.223691   0.116109   2.119839 H        1 UNL1     0.0342
     114 H         -4.42187   -0.066871   0.83576 H        1 UNL1     0.0342
     115 H         -2.654067   1.950662   3.311973 H        1 UNL1     0.0234
     116 H         -1.147713   1.918709   4.234285 H        1 UNL1     0.0234
     117 H         -1.622868   3.300664   3.225289 H        1 UNL1     0.0234
     118 H         0.943146   7.68263   -0.769805 H        1 UNL1     0.0309
     119 H         2.213421   7.786562   -2.028241 H        1 UNL1     0.0309
     120 H         1.456916   6.265358   -1.608965 H        1 UNL1     0.0309
     121 H         -0.299054   6.274799   2.815576 H        1 UNL1     0.0524
     122 H         -2.039998   6.060992   2.591398 H        1 UNL1     0.0524
     123 H         -1.237855   5.333715   4.006098 H        1 UNL1     0.0524
@<TRIPOS>BOND
     1     1     2    1
     2     1    42    1
     3     2     3    2
     4     3     4    1
     5     4     5    2
     6     5     7    1
     7     6    75    1
     8     6    76    1
     9     6    77    1
    10     7     9   am
    11     9    10    1
    12    10    11    2
    13    10    43    1
    14    11    14    1
    15    11    15    1
    16    12    13   ar
    17    12    27   ar
    18    12    43    1
    19    13    14    1
    20    13    30   ar
    21    14    17    2
    22    15    16    1
    23    16    17    1
    24    16    18    1
    25    16    22    1
    26    18    19    1
    27    19    20    1
    28    20    21    1
    29    21    22    1
    30    23    24    1
    31    23    88    1
    32    23    89    1
    33    24    25    1
    34    24    26    1
    35    24    90    1
    36    25    91    1
    37    25    92    1
    38    25    93    1
    39    26    94    1
    40    26    95    1
    41    26    96    1
    42    27    28   ar
    43    28    29   ar
    44    29    30   ar
    45    29    31    1
    46    30    33    1
    47    31    32    1
    48    32    33    1
    49    32    35    1
    50    34    97    1
    51    34    98    1
    52    34    99    1
    53    35    61    1
    54    36    37    1
    55    36    60    1
    56    37    38    1
    57    38    39    1
    58    39    40    1
    59    40    41    1
    60    41    42    1
    61    45   100    1
    62    47   101    1
    63    47   102    1
    64    47   103    1
    65    48   104    1
    66    49   105    1
    67    49   106    1
    68    49   107    1
    69    50   108    1
    70    51    59    1
    71    52   109    1
    72    52   110    1
    73    52   111    1
    74    53    54    1
    75    54    55    2
    76    54    56    1
    77    56   112    1
    78    56   113    1
    79    56   114    1
    80    57   115    1
    81    57   116    1
    82    57   117    1
    83    58   118    1
    84    58   119    1
    85    58   120    1
    86    59   121    1
    87    59   122    1
    88    59   123    1
    89    60    61    2
    90     1    47    1
    91     1    62    1
    92     2    63    1
    93     3    64    1
    94     4    65    1
    95     5     6    1
    96     7     8    2
    97     9    78    1
    98    15    79    1
    99    18    80    1
   100    18    81    1
   101    19    82    1
   102    19    83    1
   103    20    23    1
   104    21    84    1
   105    21    85    1
   106    22    86    1
   107    22    87    1
   108    27    45    1
   109    28    34    1
   110    32    58    1
   111    33    46    2
   112    36    51    1
   113    36    66    1
   114    37    52    1
   115    37    67    1
   116    38    53    1
   117    38    68    1
   118    42    48    1
   119    42    72    1
   120    43    44    2
   121    60    73    1
   122    61    74    1
   123    39    69    1
   124    39    57    1
   125    40    70    1
   126    40    50    1
   127    41    71    1
   128    41    49    1
