@<TRIPOS>MOLECULE
*****
 123 128 0 0 0
SMALL
GASTEIGER

@<TRIPOS>ATOM
     1 C         5.199944   1.591948   0.652346 C.3        1 UNL1     0.0009
     2 C         6.689855   2.342839   -0.155964 C.2        1 UNL1     -0.0787
     3 C         7.990147   2.196916   -0.775636 C.2        1 UNL1     -0.0649
     4 C         8.931744   3.395167   -1.513163 C.2        1 UNL1     -0.0542
     5 C         9.992236   3.644886   -2.418743 C.2        1 UNL1     0.0115
     6 C         11.129213   2.974489   -3.237996 C.3        1 UNL1     -0.0348
     7 C         10.155299   5.117312   -3.037096 C.2        1 UNL1     0.2441
     8 O         10.991281   5.917117   -2.639637 O.2        1 UNL1     -0.2702
     9 N         9.452761   5.334062   -4.235265 N.am        1 UNL1     -0.2772
     10 C         8.172884   5.764269   -3.970391 C.2        1 UNL1     0.1049
     11 C         7.287226   4.823222   -3.697874 C.2        1 UNL1     0.0801
     12 C         6.878183   7.426963   -2.622603 C.ar        1 UNL1     0.0753
     13 C         6.06885   6.328592   -2.189975 C.ar        1 UNL1     0.0305
     14 C         6.166552   5.012486   -2.817167 C.2        1 UNL1     0.0924
     15 N         7.373129   3.489307   -3.838648 N.pl3        1 UNL1     -0.3170
     16 C         6.074878   2.933814   -3.562561 C.3        1 UNL1     0.1275
     17 N         5.435663   3.919766   -2.615445 N.2        1 UNL1     -0.2557
     18 C         5.268346   3.004881   -4.85568 C.3        1 UNL1     0.0016
     19 C         6.039613   2.284494   -5.950111 C.3        1 UNL1     0.0026
     20 N         6.252556   0.903181   -5.54065 N.3        1 UNL1     -0.3018
     21 C         6.967326   0.733363   -4.273908 C.3        1 UNL1     0.0026
     22 C         6.172687   1.460833   -3.187984 C.3        1 UNL1     0.0016
     23 C         6.70885   0.057347   -6.625548 C.3        1 UNL1     0.0012
     24 C         5.580591   -0.167238   -7.644542 C.3        1 UNL1     -0.0339
     25 C         5.727721   0.762276   -8.860443 C.3        1 UNL1     -0.0615
     26 C         5.536621   -1.627626   -8.059405 C.3        1 UNL1     -0.0615
     27 C         6.695288   8.706602   -2.103765 C.ar        1 UNL1     0.1347
     28 C         5.712754   9.017108   -1.180584 C.ar        1 UNL1     0.0342
     29 C         4.960201   7.910559   -0.732951 C.ar        1 UNL1     0.1435
     30 C         5.156232   6.616528   -1.216971 C.ar        1 UNL1     0.0774
     31 O         3.894555   8.066499   0.082579 O.3        1 UNL1     -0.4436
     32 C         3.139543   6.855282   -0.071647 C.3        1 UNL1     0.3143
     33 C         4.138623   5.824881   -0.55778 C.2        1 UNL1     0.2504
     34 C         5.294468   10.40153   -0.77008 C.3        1 UNL1     -0.0327
     35 O         2.720162   6.445352   1.235766 O.2        1 UNL1     -0.4528
     36 C         -0.56683   4.611045   0.746798 C.3        1 UNL1     0.0854
     37 C         -0.880805   3.350309   -0.147343 C.3        1 UNL1     0.0236
     38 C         -1.547742   2.117876   0.632431 C.3        1 UNL1     0.1131
     39 C         -0.884386   1.579627   1.96379 C.3        1 UNL1     0.0200
     40 C         0.768965   1.382698   2.064226 C.3        1 UNL1     0.0661
     41 C         1.743189   0.570752   0.93762 C.3        1 UNL1     0.0091
     42 C         3.4798   0.873177   0.42956 C.3        1 UNL1     0.0661
     43 C         7.859202   7.176678   -3.7076 C.2        1 UNL1     0.2131
     44 O         8.311808   8.053424   -4.421183 O.2        1 UNL1     -0.2851
     45 O         7.555211   9.710421   -2.544579 O.3        1 UNL1     -0.5056
     46 O         4.112   4.623032   -0.413891 O.2        1 UNL1     -0.2836
     47 C         5.53277   1.16699   2.107893 C.3        1 UNL1     -0.0566
     48 O         3.880395   -0.550221   0.541713 O.3        1 UNL1     -0.3909
     49 C         0.945238   0.349998   -0.328095 C.3        1 UNL1     -0.0577
     50 O         1.393532   2.585671   2.464847 O.3        1 UNL1     -0.3910
     51 O         -0.744684   4.441491   2.13498 O.3        1 UNL1     -0.3753
     52 C         0.197102   3.143904   -1.261103 C.3        1 UNL1     -0.0564
     53 O         -2.151596   1.087879   -0.27685 O.3        1 UNL1     -0.4608
     54 C         -2.426274   -0.21066   0.064149 C.2        1 UNL1     0.3042
     55 O         -1.870251   -1.225954   -0.352811 O.2        1 UNL1     -0.2512
     56 C         -3.497566   -0.344405   1.108734 C.3        1 UNL1     0.0332
     57 C         -1.626865   2.285422   3.192103 C.3        1 UNL1     -0.0567
     58 C         2.110602   7.121284   -1.195057 C.3        1 UNL1     0.0210
     59 C         -1.045695   5.638217   2.851293 C.3        1 UNL1     0.0372
     60 C         0.788563   5.195547   0.555931 C.2        1 UNL1     -0.0208
     61 C         1.68435   5.612074   1.451931 C.2        1 UNL1     0.0882
     62 H         4.752693   2.591467   0.712665 H        1 UNL1     0.0365
     63 H         6.45363   3.405599   -0.071063 H        1 UNL1     0.0576
     64 H         8.424305   1.213729   -0.970463 H        1 UNL1     0.0615
     65 H         8.462232   4.329309   -1.193131 H        1 UNL1     0.0622
     66 H         -1.276358   5.376845   0.403043 H        1 UNL1     0.0645
     67 H         -1.714573   3.679478   -0.791577 H        1 UNL1     0.0362
     68 H         -2.492054   2.588206   0.946418 H        1 UNL1     0.0741
     69 H         -1.254276   0.581726   2.158166 H        1 UNL1     0.0359
     70 H         0.829387   0.729464   2.955682 H        1 UNL1     0.0600
     71 H         1.739706   -0.446255   1.376531 H        1 UNL1     0.0348
     72 H         3.35577   1.375789   1.399774 H        1 UNL1     0.0602
     73 H         0.948248   5.376973   -0.477913 H        1 UNL1     0.0628
     74 H         1.623334   5.41449   2.522666 H        1 UNL1     0.1022
     75 H         11.115444   1.867149   -3.094316 H        1 UNL1     0.0279
     76 H         11.069582   3.071112   -4.319743 H        1 UNL1     0.0279
     77 H         12.131094   3.229378   -2.86254 H        1 UNL1     0.0279
     78 H         9.381352   4.460447   -4.752734 H        1 UNL1     0.1553
     79 H         8.045372   3.033585   -4.428004 H        1 UNL1     0.1484
     80 H         4.285894   2.546534   -4.689928 H        1 UNL1     0.0317
     81 H         5.084131   4.044999   -5.145285 H        1 UNL1     0.0317
     82 H         6.994611   2.783518   -6.171168 H        1 UNL1     0.0428
     83 H         5.447579   2.348807   -6.863572 H        1 UNL1     0.0428
     84 H         7.04386   -0.309183   -3.949792 H        1 UNL1     0.0428
     85 H         8.011515   1.067773   -4.345719 H        1 UNL1     0.0428
     86 H         6.649368   1.204998   -2.259915 H        1 UNL1     0.0317
     87 H         5.174889   1.015543   -3.092002 H        1 UNL1     0.0317
     88 H         7.53934   0.567828   -7.130515 H        1 UNL1     0.0429
     89 H         7.098957   -0.897354   -6.249867 H        1 UNL1     0.0429
     90 H         4.616511   0.036707   -7.163741 H        1 UNL1     0.0308
     91 H         6.696571   0.62612   -9.350234 H        1 UNL1     0.0233
     92 H         4.930729   0.579574   -9.585033 H        1 UNL1     0.0233
     93 H         5.655535   1.82197   -8.58718 H        1 UNL1     0.0233
     94 H         4.869656   -1.756237   -8.918739 H        1 UNL1     0.0233
     95 H         6.535015   -1.962445   -8.354479 H        1 UNL1     0.0233
     96 H         5.177513   -2.263152   -7.245086 H        1 UNL1     0.0233
     97 H         4.468912   10.385428   -0.064794 H        1 UNL1     0.0280
     98 H         6.105426   10.947973   -0.271077 H        1 UNL1     0.0280
     99 H         4.977965   10.970418   -1.659623 H        1 UNL1     0.0280
     100 H         7.123542   10.47201   -2.889928 H        1 UNL1     0.2922
     101 H         4.636865   0.777996   2.591313 H        1 UNL1     0.0236
     102 H         5.999741   1.96074   2.690029 H        1 UNL1     0.0236
     103 H         6.253385   0.332849   2.141276 H        1 UNL1     0.0236
     104 H         4.259915   -0.680494   1.43276 H        1 UNL1     0.2098
     105 H         0.781004   1.248321   -0.917886 H        1 UNL1     0.0234
     106 H         1.311859   -0.456755   -0.962655 H        1 UNL1     0.0234
     107 H         0.0   -0.0   0.0 H        1 UNL1     0.0234
     108 H         1.255057   3.236481   1.749978 H        1 UNL1     0.2098
     109 H         1.205995   3.015195   -0.844832 H        1 UNL1     0.0234
     110 H         -0.031713   2.308908   -1.93205 H        1 UNL1     0.0234
     111 H         0.259984   4.012948   -1.9295 H        1 UNL1     0.0234
     112 H         -3.652707   -1.40046   1.349618 H        1 UNL1     0.0342
     113 H         -3.270178   0.231372   2.004624 H        1 UNL1     0.0342
     114 H         -4.435226   0.046922   0.690618 H        1 UNL1     0.0342
     115 H         -2.704489   2.071173   3.195614 H        1 UNL1     0.0234
     116 H         -1.232806   2.003329   4.170464 H        1 UNL1     0.0234
     117 H         -1.628872   3.387307   3.130568 H        1 UNL1     0.0234
     118 H         1.211059   7.639497   -0.819179 H        1 UNL1     0.0309
     119 H         2.526886   7.688883   -2.033354 H        1 UNL1     0.0309
     120 H         1.708724   6.197047   -1.624461 H        1 UNL1     0.0309
     121 H         -0.183133   6.298703   2.767022 H        1 UNL1     0.0524
     122 H         -1.914224   6.170992   2.429577 H        1 UNL1     0.0524
     123 H         -1.2438   5.41172   3.895107 H        1 UNL1     0.0524
@<TRIPOS>BOND
     1     1     2    1
     2     1    42    1
     3     2     3    2
     4     3     4    1
     5     4     5    2
     6     5     7    1
     7     6    75    1
     8     6    76    1
     9     6    77    1
    10     7     9   am
    11     9    10    1
    12    10    11    2
    13    10    43    1
    14    11    14    1
    15    11    15    1
    16    12    13   ar
    17    12    27   ar
    18    12    43    1
    19    13    14    1
    20    13    30   ar
    21    14    17    2
    22    15    16    1
    23    16    17    1
    24    16    18    1
    25    16    22    1
    26    18    19    1
    27    19    20    1
    28    20    21    1
    29    21    22    1
    30    23    24    1
    31    23    88    1
    32    23    89    1
    33    24    25    1
    34    24    26    1
    35    24    90    1
    36    25    91    1
    37    25    92    1
    38    25    93    1
    39    26    94    1
    40    26    95    1
    41    26    96    1
    42    27    28   ar
    43    28    29   ar
    44    29    30   ar
    45    29    31    1
    46    30    33    1
    47    31    32    1
    48    32    33    1
    49    32    35    1
    50    34    97    1
    51    34    98    1
    52    34    99    1
    53    35    61    1
    54    36    37    1
    55    36    60    1
    56    37    38    1
    57    38    39    1
    58    39    40    1
    59    40    41    1
    60    41    42    1
    61    45   100    1
    62    47   101    1
    63    47   102    1
    64    47   103    1
    65    48   104    1
    66    49   105    1
    67    49   106    1
    68    49   107    1
    69    50   108    1
    70    51    59    1
    71    52   109    1
    72    52   110    1
    73    52   111    1
    74    53    54    1
    75    54    55    2
    76    54    56    1
    77    56   112    1
    78    56   113    1
    79    56   114    1
    80    57   115    1
    81    57   116    1
    82    57   117    1
    83    58   118    1
    84    58   119    1
    85    58   120    1
    86    59   121    1
    87    59   122    1
    88    59   123    1
    89    60    61    2
    90     1    47    1
    91     1    62    1
    92     2    63    1
    93     3    64    1
    94     4    65    1
    95     5     6    1
    96     7     8    2
    97     9    78    1
    98    15    79    1
    99    18    80    1
   100    18    81    1
   101    19    82    1
   102    19    83    1
   103    20    23    1
   104    21    84    1
   105    21    85    1
   106    22    86    1
   107    22    87    1
   108    27    45    1
   109    28    34    1
   110    32    58    1
   111    33    46    2
   112    36    51    1
   113    36    66    1
   114    37    52    1
   115    37    67    1
   116    38    53    1
   117    38    68    1
   118    42    48    1
   119    42    72    1
   120    43    44    2
   121    60    73    1
   122    61    74    1
   123    39    69    1
   124    39    57    1
   125    40    70    1
   126    40    50    1
   127    41    71    1
   128    41    49    1
