@<TRIPOS>MOLECULE
*****
 123 128 0 0 0
SMALL
GASTEIGER

@<TRIPOS>ATOM
     1 C         5.166793   1.758945   0.457853 C.3        1 UNL1     0.0009
     2 C         6.596227   2.568232   -0.401688 C.2        1 UNL1     -0.0787
     3 C         7.87388   2.472849   -1.075893 C.2        1 UNL1     -0.0649
     4 C         8.743855   3.709997   -1.836789 C.2        1 UNL1     -0.0542
     5 C         9.757081   4.005019   -2.781995 C.2        1 UNL1     0.0115
     6 C         10.880791   3.382144   -3.655279 C.3        1 UNL1     -0.0348
     7 C         9.845453   5.488682   -3.388563 C.2        1 UNL1     0.2441
     8 O         10.670167   6.311839   -3.016026 O.2        1 UNL1     -0.2702
     9 N         9.087113   5.694569   -4.554189 N.am        1 UNL1     -0.2772
     10 C         7.805726   6.078571   -4.231836 C.2        1 UNL1     0.1049
     11 C         6.963827   5.105364   -3.934691 C.2        1 UNL1     0.0801
     12 C         6.513462   7.682116   -2.811965 C.ar        1 UNL1     0.0753
     13 C         5.759627   6.552524   -2.359899 C.ar        1 UNL1     0.0305
     14 C         5.874906   5.247291   -3.006529 C.2        1 UNL1     0.0924
     15 N         7.088049   3.776691   -4.095081 N.pl3        1 UNL1     -0.3170
     16 C         5.821489   3.17487   -3.772758 C.3        1 UNL1     0.1275
     17 N         5.189661   4.128478   -2.788305 N.2        1 UNL1     -0.2557
     18 C         4.960207   3.232689   -5.030753 C.3        1 UNL1     0.0016
     19 C         5.708991   2.550513   -6.164574 C.3        1 UNL1     0.0026
     20 N         5.984424   1.172815   -5.781018 N.3        1 UNL1     -0.3018
     21 C         6.756259   1.013503   -4.546814 C.3        1 UNL1     0.0026
     22 C         5.983548   1.702062   -3.420449 C.3        1 UNL1     0.0016
     23 C         6.423237   0.354567   -6.893922 C.3        1 UNL1     0.0012
     24 C         5.261838   0.103133   -7.868444 C.3        1 UNL1     -0.0339
     25 C         5.327583   1.050129   -9.077962 C.3        1 UNL1     -0.0615
     26 C         5.249222   -1.35335   -8.298883 C.3        1 UNL1     -0.0615
     27 C         6.309835   8.949204   -2.27054 C.ar        1 UNL1     0.1347
     28 C         5.356595   9.216491   -1.304134 C.ar        1 UNL1     0.0342
     29 C         4.660353   8.080475   -0.839503 C.ar        1 UNL1     0.1435
     30 C         4.879017   6.79907   -1.346857 C.ar        1 UNL1     0.0774
     31 O         3.624792   8.191656   0.020879 O.3        1 UNL1     -0.4436
     32 C         2.904655   6.957446   -0.116971 C.3        1 UNL1     0.3143
     33 C         3.9164   5.966558   -0.656163 C.2        1 UNL1     0.2504
     34 C         4.909947   10.581542   -0.860015 C.3        1 UNL1     -0.0327
     35 O         2.553589   6.519559   1.201459 O.2        1 UNL1     -0.4528
     36 C         -0.688141   4.581033   0.825434 C.3        1 UNL1     0.0854
     37 C         -0.996847   3.320158   -0.070343 C.3        1 UNL1     0.0236
     38 C         -1.589667   2.057638   0.721082 C.3        1 UNL1     0.1131
     39 C         -0.854272   1.527698   2.017471 C.3        1 UNL1     0.0200
     40 C         0.807444   1.38546   2.047615 C.3        1 UNL1     0.0661
     41 C         1.760606   0.618959   0.872213 C.3        1 UNL1     0.0091
     42 C         3.463703   0.985127   0.297076 C.3        1 UNL1     0.0661
     43 C         7.456493   7.476706   -3.939245 C.2        1 UNL1     0.2131
     44 O         7.849827   8.375832   -4.660076 O.2        1 UNL1     -0.2851
     45 O         7.116987   9.986093   -2.73401 O.3        1 UNL1     -0.5056
     46 O         3.935655   4.763012   -0.525929 O.2        1 UNL1     -0.2836
     47 C         5.573505   1.329761   1.893252 C.3        1 UNL1     -0.0566
     48 O         3.915613   -0.425107   0.375388 O.3        1 UNL1     -0.3909
     49 C         0.91871   0.385133   -0.362303 C.3        1 UNL1     -0.0577
     50 O         1.407792   2.604383   2.436885 O.3        1 UNL1     -0.3910
     51 O         -0.802654   4.390629   2.217578 O.3        1 UNL1     -0.3753
     52 C         0.040288   3.162172   -1.2298 C.3        1 UNL1     -0.0564
     53 O         -2.196128   1.017763   -0.175128 O.3        1 UNL1     -0.4608
     54 C         -2.425681   -0.289571   0.165624 C.2        1 UNL1     0.3042
     55 O         -1.856469   -1.287308   -0.275236 O.2        1 UNL1     -0.2512
     56 C         -3.459777   -0.457779   1.242223 C.3        1 UNL1     0.0332
     57 C         -1.568282   2.194816   3.283693 C.3        1 UNL1     -0.0567
     58 C         1.821832   7.200761   -1.193921 C.3        1 UNL1     0.0210
     59 C         -1.113305   5.568753   2.960133 C.3        1 UNL1     0.0372
     60 C         0.638044   5.212849   0.586265 C.2        1 UNL1     -0.0208
     61 C         1.555836   5.649606   1.449772 C.2        1 UNL1     0.0882
     62 H         4.689499   2.742136   0.548614 H        1 UNL1     0.0365
     63 H         6.328581   3.621461   -0.294252 H        1 UNL1     0.0576
     64 H         8.33199   1.50699   -1.300303 H        1 UNL1     0.0615
     65 H         8.257252   4.624301   -1.486435 H        1 UNL1     0.0622
     66 H         -1.436313   5.326179   0.520405 H        1 UNL1     0.0645
     67 H         -1.867033   3.628003   -0.675791 H        1 UNL1     0.0362
     68 H         -2.53526   2.492503   1.079227 H        1 UNL1     0.0741
     69 H         -1.182479   0.515874   2.214704 H        1 UNL1     0.0359
     70 H         0.92636   0.725054   2.927834 H        1 UNL1     0.0600
     71 H         1.809046   -0.402262   1.298498 H        1 UNL1     0.0348
     72 H         3.36333   1.472788   1.2776 H        1 UNL1     0.0602
     73 H         0.748688   5.410683   -0.450976 H        1 UNL1     0.0628
     74 H         1.545787   5.438546   2.519627 H        1 UNL1     0.1022
     75 H         10.909737   2.273484   -3.524632 H        1 UNL1     0.0279
     76 H         10.773259   3.488364   -4.732415 H        1 UNL1     0.0279
     77 H         11.888344   3.666548   -3.318155 H        1 UNL1     0.0279
     78 H         9.023376   4.824675   -5.078879 H        1 UNL1     0.1553
     79 H         7.750072   3.350236   -4.717008 H        1 UNL1     0.1484
     80 H         4.001211   2.739773   -4.830436 H        1 UNL1     0.0317
     81 H         4.729745   4.269079   -5.29989 H        1 UNL1     0.0317
     82 H         6.636932   3.083753   -6.418525 H        1 UNL1     0.0428
     83 H         5.077844   2.604708   -7.052136 H        1 UNL1     0.0428
     84 H         6.8807   -0.02931   -4.238811 H        1 UNL1     0.0428
     85 H         7.784907   1.383625   -4.657316 H        1 UNL1     0.0428
     86 H         6.506466   1.452425   -2.51589 H        1 UNL1     0.0317
     87 H         5.005906   1.222431   -3.289049 H        1 UNL1     0.0317
     88 H         7.214713   0.898126   -7.426278 H        1 UNL1     0.0429
     89 H         6.860028   -0.590459   -6.546194 H        1 UNL1     0.0429
     90 H         4.312251   0.269316   -7.346064 H        1 UNL1     0.0308
     91 H         6.279312   0.95195   -9.608693 H        1 UNL1     0.0233
     92 H         4.507782   0.848528   -9.771426 H        1 UNL1     0.0233
     93 H         5.231642   2.103784   -8.789102 H        1 UNL1     0.0233
     94 H         4.551893   -1.495063   -9.131641 H        1 UNL1     0.0233
     95 H         6.245107   -1.651172   -8.638704 H        1 UNL1     0.0233
     96 H         4.945419   -2.009346   -7.47831 H        1 UNL1     0.0233
     97 H         4.115283   10.530058   -0.121714 H        1 UNL1     0.0280
     98 H         5.722284   11.149559   -0.388082 H        1 UNL1     0.0280
     99 H         4.538189   11.149013   -1.728846 H        1 UNL1     0.0280
     100 H         6.646567   10.740548   -3.042433 H        1 UNL1     0.2922
     101 H         4.711782   0.905641   2.40824 H        1 UNL1     0.0236
     102 H         6.037574   2.132456   2.465356 H        1 UNL1     0.0236
     103 H         6.322169   0.520036   1.886907 H        1 UNL1     0.0236
     104 H         4.335807   -0.552133   1.24847 H        1 UNL1     0.2098
     105 H         0.700482   1.283727   -0.933895 H        1 UNL1     0.0234
     106 H         1.28532   -0.401934   -1.021129 H        1 UNL1     0.0234
     107 H         0.0   -0.0   0.0 H        1 UNL1     0.0234
     108 H         1.218322   3.257834   1.736263 H        1 UNL1     0.2098
     109 H         1.069262   3.063013   -0.85685 H        1 UNL1     0.0234
     110 H         -0.188268   2.327231   -1.900903 H        1 UNL1     0.0234
     111 H         0.046572   4.039997   -1.889596 H        1 UNL1     0.0234
     112 H         -3.579349   -1.518957   1.480864 H        1 UNL1     0.0342
     113 H         -3.219682   0.118671   2.134357 H        1 UNL1     0.0342
     114 H         -4.420095   -0.089126   0.856156 H        1 UNL1     0.0342
     115 H         -2.63973   1.954559   3.321968 H        1 UNL1     0.0234
     116 H         -1.132581   1.906094   4.242261 H        1 UNL1     0.0234
     117 H         -1.598464   3.297202   3.241551 H        1 UNL1     0.0234
     118 H         0.921918   7.68432   -0.775194 H        1 UNL1     0.0309
     119 H         2.183993   7.791056   -2.04162 H        1 UNL1     0.0309
     120 H         1.433417   6.268205   -1.617689 H        1 UNL1     0.0309
     121 H         -0.277019   6.258453   2.849241 H        1 UNL1     0.0524
     122 H         -2.015305   6.076932   2.580414 H        1 UNL1     0.0524
     123 H         -1.261167   5.324358   4.008228 H        1 UNL1     0.0524
@<TRIPOS>BOND
     1     1     2    1
     2     1    42    1
     3     2     3    2
     4     3     4    1
     5     4     5    2
     6     5     7    1
     7     6    75    1
     8     6    76    1
     9     6    77    1
    10     7     9   am
    11     9    10    1
    12    10    11    2
    13    10    43    1
    14    11    14    1
    15    11    15    1
    16    12    13   ar
    17    12    27   ar
    18    12    43    1
    19    13    14    1
    20    13    30   ar
    21    14    17    2
    22    15    16    1
    23    16    17    1
    24    16    18    1
    25    16    22    1
    26    18    19    1
    27    19    20    1
    28    20    21    1
    29    21    22    1
    30    23    24    1
    31    23    88    1
    32    23    89    1
    33    24    25    1
    34    24    26    1
    35    24    90    1
    36    25    91    1
    37    25    92    1
    38    25    93    1
    39    26    94    1
    40    26    95    1
    41    26    96    1
    42    27    28   ar
    43    28    29   ar
    44    29    30   ar
    45    29    31    1
    46    30    33    1
    47    31    32    1
    48    32    33    1
    49    32    35    1
    50    34    97    1
    51    34    98    1
    52    34    99    1
    53    35    61    1
    54    36    37    1
    55    36    60    1
    56    37    38    1
    57    38    39    1
    58    39    40    1
    59    40    41    1
    60    41    42    1
    61    45   100    1
    62    47   101    1
    63    47   102    1
    64    47   103    1
    65    48   104    1
    66    49   105    1
    67    49   106    1
    68    49   107    1
    69    50   108    1
    70    51    59    1
    71    52   109    1
    72    52   110    1
    73    52   111    1
    74    53    54    1
    75    54    55    2
    76    54    56    1
    77    56   112    1
    78    56   113    1
    79    56   114    1
    80    57   115    1
    81    57   116    1
    82    57   117    1
    83    58   118    1
    84    58   119    1
    85    58   120    1
    86    59   121    1
    87    59   122    1
    88    59   123    1
    89    60    61    2
    90     1    47    1
    91     1    62    1
    92     2    63    1
    93     3    64    1
    94     4    65    1
    95     5     6    1
    96     7     8    2
    97     9    78    1
    98    15    79    1
    99    18    80    1
   100    18    81    1
   101    19    82    1
   102    19    83    1
   103    20    23    1
   104    21    84    1
   105    21    85    1
   106    22    86    1
   107    22    87    1
   108    27    45    1
   109    28    34    1
   110    32    58    1
   111    33    46    2
   112    36    51    1
   113    36    66    1
   114    37    52    1
   115    37    67    1
   116    38    53    1
   117    38    68    1
   118    42    48    1
   119    42    72    1
   120    43    44    2
   121    60    73    1
   122    61    74    1
   123    39    69    1
   124    39    57    1
   125    40    70    1
   126    40    50    1
   127    41    71    1
   128    41    49    1
