@<TRIPOS>MOLECULE
*****
 123 128 0 0 0
SMALL
GASTEIGER

@<TRIPOS>ATOM
     1 C         5.168556   1.744786   0.490282 C.3        1 UNL1     0.0009
     2 C         6.606034   2.549043   -0.360521 C.2        1 UNL1     -0.0787
     3 C         7.887736   2.449236   -1.026347 C.2        1 UNL1     -0.0649
     4 C         8.766451   3.683149   -1.782439 C.2        1 UNL1     -0.0542
     5 C         9.786699   3.974367   -2.72125 C.2        1 UNL1     0.0115
     6 C         10.914125   3.347403   -3.586783 C.3        1 UNL1     -0.0348
     7 C         9.883591   5.457315   -3.328265 C.2        1 UNL1     0.2441
     8 O         10.708408   6.278191   -2.950952 O.2        1 UNL1     -0.2702
     9 N         9.133474   5.664705   -4.498933 N.am        1 UNL1     -0.2772
     10 C         7.851214   6.052889   -4.185177 C.2        1 UNL1     0.1049
     11 C         7.0044   5.082497   -3.892829 C.2        1 UNL1     0.0801
     12 C         6.554719   7.66143   -2.774846 C.ar        1 UNL1     0.0753
     13 C         5.794479   6.534493   -2.326899 C.ar        1 UNL1     0.0305
     14 C         5.909921   5.228448   -2.971857 C.2        1 UNL1     0.0924
     15 N         7.125556   3.753333   -4.051483 N.pl3        1 UNL1     -0.3170
     16 C         5.855076   3.155653   -3.736974 C.3        1 UNL1     0.1275
     17 N         5.219819   4.111911   -2.757309 N.2        1 UNL1     -0.2557
     18 C         5.002162   3.215227   -5.000576 C.3        1 UNL1     0.0016
     19 C         5.756181   2.529932   -6.129034 C.3        1 UNL1     0.0026
     20 N         6.02486   1.151667   -5.742738 N.3        1 UNL1     -0.3018
     21 C         6.78817   0.990859   -4.503437 C.3        1 UNL1     0.0026
     22 C         6.010294   1.682605   -3.382593 C.3        1 UNL1     0.0016
     23 C         6.468359   0.331271   -6.852199 C.3        1 UNL1     0.0012
     24 C         5.312541   0.082724   -7.834067 C.3        1 UNL1     -0.0339
     25 C         5.349208   1.074436   -9.008469 C.3        1 UNL1     -0.0615
     26 C         5.340023   -1.356968   -8.317092 C.3        1 UNL1     -0.0615
     27 C         6.351497   8.929528   -2.235638 C.ar        1 UNL1     0.1347
     28 C         5.392833   9.200446   -1.275629 C.ar        1 UNL1     0.0342
     29 C         4.690083   8.066918   -0.814739 C.ar        1 UNL1     0.1435
     30 C         4.908076   6.784481   -1.319769 C.ar        1 UNL1     0.0774
     31 O         3.649306   8.181908   0.038822 O.3        1 UNL1     -0.4436
     32 C         2.92627   6.949828   -0.102842 C.3        1 UNL1     0.3143
     33 C         3.938427   5.955437   -0.634762 C.2        1 UNL1     0.2504
     34 C         4.947531   10.567186   -0.835371 C.3        1 UNL1     -0.0327
     35 O         2.565299   6.51397   1.213585 O.2        1 UNL1     -0.4528
     36 C         -0.679894   4.585185   0.817864 C.3        1 UNL1     0.0854
     37 C         -0.986672   3.324627   -0.079021 C.3        1 UNL1     0.0236
     38 C         -1.588516   2.064509   0.709416 C.3        1 UNL1     0.1131
     39 C         -0.863193   1.533232   2.010923 C.3        1 UNL1     0.0200
     40 C         0.797844   1.38589   2.051958 C.3        1 UNL1     0.0661
     41 C         1.756244   0.615611   0.883305 C.3        1 UNL1     0.0091
     42 C         3.464163   0.976111   0.318986 C.3        1 UNL1     0.0661
     43 C         7.504409   7.452304   -3.895834 C.2        1 UNL1     0.2131
     44 O         7.905191   8.349696   -4.614721 O.2        1 UNL1     -0.2851
     45 O         7.164841   9.96359   -2.694577 O.3        1 UNL1     -0.5056
     46 O         3.953118   4.751932   -0.503568 O.2        1 UNL1     -0.2836
     47 C         5.564612   1.315378   1.92859 C.3        1 UNL1     -0.0566
     48 O         3.911196   -0.435455   0.401213 O.3        1 UNL1     -0.3909
     49 C         0.921663   0.383498   -0.35649 C.3        1 UNL1     -0.0577
     50 O         1.399416   2.603234   2.444269 O.3        1 UNL1     -0.3910
     51 O         -0.804031   4.396133   2.209367 O.3        1 UNL1     -0.3753
     52 C         0.057476   3.162612   -1.231607 C.3        1 UNL1     -0.0564
     53 O         -2.192355   1.025868   -0.189989 O.3        1 UNL1     -0.4608
     54 C         -2.428153   -0.280507   0.150175 C.2        1 UNL1     0.3042
     55 O         -1.860197   -1.280412   -0.287379 O.2        1 UNL1     -0.2512
     56 C         -3.468229   -0.444639   1.221631 C.3        1 UNL1     0.0332
     57 C         -1.583345   2.203456   3.272016 C.3        1 UNL1     -0.0567
     58 C         1.851218   7.195711   -1.186971 C.3        1 UNL1     0.0210
     59 C         -1.115855   5.575741   2.949068 C.3        1 UNL1     0.0372
     60 C         0.649762   5.212735   0.586872 C.2        1 UNL1     -0.0208
     61 C         1.563273   5.647278   1.456018 C.2        1 UNL1     0.0882
     62 H         4.693722   2.729509   0.577256 H        1 UNL1     0.0365
     63 H         6.340951   3.60317   -0.255559 H        1 UNL1     0.0576
     64 H         8.344307   1.481808   -1.247105 H        1 UNL1     0.0615
     65 H         8.280411   4.599201   -1.435889 H        1 UNL1     0.0622
     66 H         -1.423764   5.332417   0.507464 H        1 UNL1     0.0645
     67 H         -1.851954   3.634721   -0.690322 H        1 UNL1     0.0362
     68 H         -2.535066   2.502546   1.06111 H        1 UNL1     0.0741
     69 H         -1.195798   0.522567   2.206725 H        1 UNL1     0.0359
     70 H         0.909002   0.725752   2.93339 H        1 UNL1     0.0600
     71 H         1.798761   -0.405449   1.310606 H        1 UNL1     0.0348
     72 H         3.358933   1.464781   1.298497 H        1 UNL1     0.0602
     73 H         0.767748   5.409485   -0.449765 H        1 UNL1     0.0628
     74 H         1.545625   5.437016   2.525932 H        1 UNL1     0.1022
     75 H         10.955337   2.24172   -3.435784 H        1 UNL1     0.0279
     76 H         10.801932   3.432524   -4.665317 H        1 UNL1     0.0279
     77 H         11.919684   3.648677   -3.258475 H        1 UNL1     0.0279
     78 H         9.070458   4.794637   -5.02342 H        1 UNL1     0.1553
     79 H         7.790282   3.324392   -4.668801 H        1 UNL1     0.1484
     80 H         4.040368   2.725416   -4.806148 H        1 UNL1     0.0317
     81 H         4.776656   4.25213   -5.271925 H        1 UNL1     0.0317
     82 H         6.687395   3.060126   -6.377324 H        1 UNL1     0.0428
     83 H         5.13098   2.585439   -7.020714 H        1 UNL1     0.0428
     84 H         6.907386   -0.052113   -4.193906 H        1 UNL1     0.0428
     85 H         7.818653   1.357726   -4.607513 H        1 UNL1     0.0428
     86 H         6.526554   1.432004   -2.474484 H        1 UNL1     0.0317
     87 H         5.030342   1.206086   -3.257212 H        1 UNL1     0.0317
     88 H         7.26495   0.872005   -7.379781 H        1 UNL1     0.0429
     89 H         6.899961   -0.614848   -6.500983 H        1 UNL1     0.0429
     90 H         4.359704   0.203033   -7.305068 H        1 UNL1     0.0308
     91 H         6.302257   1.022422   -9.543348 H        1 UNL1     0.0233
     92 H         4.534013   0.8751   -9.707991 H        1 UNL1     0.0233
     93 H         5.224256   2.113801   -8.68145 H        1 UNL1     0.0233
     94 H         4.645289   -1.487978   -9.153762 H        1 UNL1     0.0233
     95 H         6.343206   -1.614095   -8.668478 H        1 UNL1     0.0233
     96 H         5.05643   -2.05059   -7.520579 H        1 UNL1     0.0233
     97 H         4.147935   10.518683   -0.102211 H        1 UNL1     0.0280
     98 H         5.758538   11.133033   -0.358568 H        1 UNL1     0.0280
     99 H         4.583176   11.135179   -1.706993 H        1 UNL1     0.0280
     100 H         6.698605   10.715118   -3.016218 H        1 UNL1     0.2922
     101 H         4.701388   0.882867   2.433994 H        1 UNL1     0.0236
     102 H         6.016344   2.120441   2.507204 H        1 UNL1     0.0236
     103 H         6.319984   0.511882   1.927691 H        1 UNL1     0.0236
     104 H         4.330384   -0.561674   1.274896 H        1 UNL1     0.2098
     105 H         0.708663   1.282569   -0.929302 H        1 UNL1     0.0234
     106 H         1.290946   -0.404148   -1.013126 H        1 UNL1     0.0234
     107 H         0.0   -0.0   0.0 H        1 UNL1     0.0234
     108 H         1.206893   3.259778   1.747382 H        1 UNL1     0.2098
     109 H         1.082233   3.048157   -0.851497 H        1 UNL1     0.0234
     110 H         -0.175954   2.335516   -1.9107 H        1 UNL1     0.0234
     111 H         0.07955   4.045162   -1.884726 H        1 UNL1     0.0234
     112 H         -3.60397   -1.506344   1.44901 H        1 UNL1     0.0342
     113 H         -3.222841   0.119148   2.120393 H        1 UNL1     0.0342
     114 H         -4.421789   -0.058167   0.836238 H        1 UNL1     0.0342
     115 H         -2.653234   1.956362   3.310345 H        1 UNL1     0.0234
     116 H         -1.147073   1.923574   4.232944 H        1 UNL1     0.0234
     117 H         -1.620747   3.305336   3.222986 H        1 UNL1     0.0234
     118 H         0.950103   7.682343   -0.774434 H        1 UNL1     0.0309
     119 H         2.220697   7.784278   -2.032711 H        1 UNL1     0.0309
     120 H         1.462683   6.264054   -1.612604 H        1 UNL1     0.0309
     121 H         -0.294056   6.27796   2.81162 H        1 UNL1     0.0524
     122 H         -2.035162   6.065653   2.58727 H        1 UNL1     0.0524
     123 H         -1.233954   5.338518   4.002573 H        1 UNL1     0.0524
@<TRIPOS>BOND
     1     1     2    1
     2     1    42    1
     3     2     3    2
     4     3     4    1
     5     4     5    2
     6     5     7    1
     7     6    75    1
     8     6    76    1
     9     6    77    1
    10     7     9   am
    11     9    10    1
    12    10    11    2
    13    10    43    1
    14    11    14    1
    15    11    15    1
    16    12    13   ar
    17    12    27   ar
    18    12    43    1
    19    13    14    1
    20    13    30   ar
    21    14    17    2
    22    15    16    1
    23    16    17    1
    24    16    18    1
    25    16    22    1
    26    18    19    1
    27    19    20    1
    28    20    21    1
    29    21    22    1
    30    23    24    1
    31    23    88    1
    32    23    89    1
    33    24    25    1
    34    24    26    1
    35    24    90    1
    36    25    91    1
    37    25    92    1
    38    25    93    1
    39    26    94    1
    40    26    95    1
    41    26    96    1
    42    27    28   ar
    43    28    29   ar
    44    29    30   ar
    45    29    31    1
    46    30    33    1
    47    31    32    1
    48    32    33    1
    49    32    35    1
    50    34    97    1
    51    34    98    1
    52    34    99    1
    53    35    61    1
    54    36    37    1
    55    36    60    1
    56    37    38    1
    57    38    39    1
    58    39    40    1
    59    40    41    1
    60    41    42    1
    61    45   100    1
    62    47   101    1
    63    47   102    1
    64    47   103    1
    65    48   104    1
    66    49   105    1
    67    49   106    1
    68    49   107    1
    69    50   108    1
    70    51    59    1
    71    52   109    1
    72    52   110    1
    73    52   111    1
    74    53    54    1
    75    54    55    2
    76    54    56    1
    77    56   112    1
    78    56   113    1
    79    56   114    1
    80    57   115    1
    81    57   116    1
    82    57   117    1
    83    58   118    1
    84    58   119    1
    85    58   120    1
    86    59   121    1
    87    59   122    1
    88    59   123    1
    89    60    61    2
    90     1    47    1
    91     1    62    1
    92     2    63    1
    93     3    64    1
    94     4    65    1
    95     5     6    1
    96     7     8    2
    97     9    78    1
    98    15    79    1
    99    18    80    1
   100    18    81    1
   101    19    82    1
   102    19    83    1
   103    20    23    1
   104    21    84    1
   105    21    85    1
   106    22    86    1
   107    22    87    1
   108    27    45    1
   109    28    34    1
   110    32    58    1
   111    33    46    2
   112    36    51    1
   113    36    66    1
   114    37    52    1
   115    37    67    1
   116    38    53    1
   117    38    68    1
   118    42    48    1
   119    42    72    1
   120    43    44    2
   121    60    73    1
   122    61    74    1
   123    39    69    1
   124    39    57    1
   125    40    70    1
   126    40    50    1
   127    41    71    1
   128    41    49    1
