@<TRIPOS>MOLECULE
*****
 123 128 0 0 0
SMALL
GASTEIGER

@<TRIPOS>ATOM
     1 C         4.993888   2.129198   0.73441 C.3        1 UNL1     0.0009
     2 C         6.376821   3.097251   -0.032014 C.2        1 UNL1     -0.0787
     3 C         7.68141   3.143361   -0.658087 C.2        1 UNL1     -0.0649
     4 C         8.466281   4.484514   -1.330132 C.2        1 UNL1     -0.0542
     5 C         9.483136   4.908854   -2.220648 C.2        1 UNL1     0.0115
     6 C         10.687983   4.425889   -3.074119 C.3        1 UNL1     -0.0348
     7 C         9.462718   6.420933   -2.759339 C.2        1 UNL1     0.2441
     8 O         10.197979   7.294052   -2.319362 O.2        1 UNL1     -0.2702
     9 N         8.731791   6.614131   -3.944486 N.am        1 UNL1     -0.2772
     10 C         7.410838   6.87112   -3.657497 C.2        1 UNL1     0.1049
     11 C         6.647476   5.816392   -3.436027 C.2        1 UNL1     0.0801
     12 C         5.932359   8.290417   -2.223263 C.ar        1 UNL1     0.0753
     13 C         5.264805   7.080511   -1.85029 C.ar        1 UNL1     0.0305
     14 C         5.517514   5.821179   -2.546904 C.2        1 UNL1     0.0924
     15 N         6.893599   4.51214   -3.647874 N.pl3        1 UNL1     -0.3170
     16 C         5.673974   3.789294   -3.402389 C.3        1 UNL1     0.1275
     17 N         4.925733   4.63866   -2.404173 N.2        1 UNL1     -0.2557
     18 C         4.856905   3.830513   -4.690179 C.3        1 UNL1     0.0016
     19 C         5.70313   3.268223   -5.821251 C.3        1 UNL1     0.0026
     20 N         6.084454   1.903189   -5.486134 N.3        1 UNL1     -0.3018
     21 C         6.82225   1.754352   -4.23 C.3        1 UNL1     0.0026
     22 C         5.951916   2.321277   -3.107053 C.3        1 UNL1     0.0016
     23 C         6.6333   1.177819   -6.614518 C.3        1 UNL1     0.0012
     24 C         5.534397   0.872381   -7.644506 C.3        1 UNL1     -0.0339
     25 C         5.890006   1.435999   -9.030123 C.3        1 UNL1     -0.0615
     26 C         5.273159   -0.622784   -7.699437 C.3        1 UNL1     -0.0615
     27 C         5.598846   9.509018   -1.636832 C.ar        1 UNL1     0.1347
     28 C         4.591564   9.648491   -0.69876 C.ar        1 UNL1     0.0342
     29 C         3.981454   8.436575   -0.311218 C.ar        1 UNL1     0.1435
     30 C         4.329962   7.203454   -0.863646 C.ar        1 UNL1     0.0774
     31 O         2.909756   8.418474   0.511061 O.3        1 UNL1     -0.4436
     32 C         2.306225   7.134481   0.292008 C.3        1 UNL1     0.3143
     33 C         3.41987   6.260255   -0.248119 C.2        1 UNL1     0.2504
     34 C         4.011038   10.948131   -0.214999 C.3        1 UNL1     -0.0327
     35 O         1.947613   6.607821   1.575472 O.2        1 UNL1     -0.4528
     36 C         -1.095678   4.416666   0.987846 C.3        1 UNL1     0.0854
     37 C         -1.259943   3.176422   0.027463 C.3        1 UNL1     0.0236
     38 C         -1.767783   1.832484   0.739975 C.3        1 UNL1     0.1131
     39 C         -1.035961   1.308792   2.040918 C.3        1 UNL1     0.0200
     40 C         0.62965   1.308956   2.131336 C.3        1 UNL1     0.0661
     41 C         1.688235   0.682258   0.963321 C.3        1 UNL1     0.0091
     42 C         3.372242   1.219798   0.47284 C.3        1 UNL1     0.0661
     43 C         6.92985   8.219044   -3.319701 C.2        1 UNL1     0.2131
     44 O         7.268469   9.180898   -3.985216 O.2        1 UNL1     -0.2851
     45 O         6.328029   10.63178   -2.023014 O.3        1 UNL1     -0.5056
     46 O         3.540023   5.058128   -0.168695 O.2        1 UNL1     -0.2836
     47 C         5.384646   1.671081   2.16529 C.3        1 UNL1     -0.0566
     48 O         3.94312   -0.148382   0.508898 O.3        1 UNL1     -0.3909
     49 C         0.915228   0.433815   -0.312701 C.3        1 UNL1     -0.0577
     50 O         1.106203   2.555857   2.59594 O.3        1 UNL1     -0.3910
     51 O         -1.243197   4.15329   2.364909 O.3        1 UNL1     -0.3753
     52 C         -0.171775   3.16183   -1.095313 C.3        1 UNL1     -0.0564
     53 O         -2.247848   0.786561   -0.223306 O.3        1 UNL1     -0.4608
     54 C         -2.341726   -0.55478   0.041117 C.2        1 UNL1     0.3042
     55 O         -1.573209   -1.443568   -0.323954 O.2        1 UNL1     -0.2512
     56 C         -3.501618   -0.91362   0.925763 C.3        1 UNL1     0.0332
     57 C         -1.851025   1.853002   3.304912 C.3        1 UNL1     -0.0567
     58 C         1.245793   7.332905   -0.815982 C.3        1 UNL1     0.0210
     59 C         -1.682696   5.264883   3.144053 C.3        1 UNL1     0.0372
     60 C         0.177668   5.170674   0.829034 C.2        1 UNL1     -0.0208
     61 C         1.021798   5.644677   1.746373 C.2        1 UNL1     0.0882
     62 H         4.429138   3.062412   0.847899 H        1 UNL1     0.0365
     63 H         6.01402   4.117458   0.109486 H        1 UNL1     0.0576
     64 H         8.230363   2.231889   -0.905024 H        1 UNL1     0.0615
     65 H         7.888945   5.336431   -0.960805 H        1 UNL1     0.0622
     66 H         -1.894895   5.107845   0.685241 H        1 UNL1     0.0645
     67 H         -2.13138   3.435697   -0.598582 H        1 UNL1     0.0362
     68 H         -2.760217   2.167366   1.078283 H        1 UNL1     0.0741
     69 H         -1.280954   0.264466   2.181524 H        1 UNL1     0.0359
     70 H         0.774254   0.621468   2.98662 H        1 UNL1     0.0600
     71 H         1.810747   -0.349516   1.347235 H        1 UNL1     0.0348
     72 H         3.194113   1.651394   1.468486 H        1 UNL1     0.0602
     73 H         0.307874   5.424792   -0.19357 H        1 UNL1     0.0628
     74 H         0.991716   5.38456   2.804991 H        1 UNL1     0.1022
     75 H         10.778534   3.313716   -3.030476 H        1 UNL1     0.0279
     76 H         10.631363   4.614516   -4.143831 H        1 UNL1     0.0279
     77 H         11.656696   4.73878   -2.657712 H        1 UNL1     0.0279
     78 H         8.763665   5.767033   -4.507944 H        1 UNL1     0.1553
     79 H         7.612525   4.173337   -4.260484 H        1 UNL1     0.1484
     80 H         3.938295   3.24815   -4.549555 H        1 UNL1     0.0317
     81 H         4.546191   4.854481   -4.923839 H        1 UNL1     0.0317
     82 H         6.58922   3.89051   -6.014938 H        1 UNL1     0.0428
     83 H         5.102107   3.30862   -6.730201 H        1 UNL1     0.0428
     84 H         7.026584   0.713074   -3.962049 H        1 UNL1     0.0428
     85 H         7.817739   2.216376   -4.283419 H        1 UNL1     0.0428
     86 H         6.461747   2.07627   -2.1938 H        1 UNL1     0.0317
     87 H         5.016064   1.753699   -3.035407 H        1 UNL1     0.0317
     88 H         7.392684   1.811427   -7.091145 H        1 UNL1     0.0429
     89 H         7.138553   0.258935   -6.290257 H        1 UNL1     0.0429
     90 H         4.594248   1.328712   -7.3127 H        1 UNL1     0.0308
     91 H         6.924554   1.204028   -9.300309 H        1 UNL1     0.0233
     92 H         5.2209   1.033456   -9.794233 H        1 UNL1     0.0233
     93 H         5.786035   2.526812   -9.07652 H        1 UNL1     0.0233
     94 H         4.807974   -0.890093   -8.654415 H        1 UNL1     0.0233
     95 H         6.216528   -1.170107   -7.619091 H        1 UNL1     0.0233
     96 H         4.609887   -0.941966   -6.890634 H        1 UNL1     0.0233
     97 H         3.151268   10.795152   0.430464 H        1 UNL1     0.0280
     98 H         4.731311   11.528448   0.376352 H        1 UNL1     0.0280
     99 H         3.691269   11.553712   -1.078779 H        1 UNL1     0.0280
     100 H         5.803903   11.377201   -2.258091 H        1 UNL1     0.2922
     101 H         4.486005   1.427053   2.731462 H        1 UNL1     0.0236
     102 H         6.014996   2.389538   2.688226 H        1 UNL1     0.0236
     103 H         5.971373   0.737354   2.155422 H        1 UNL1     0.0236
     104 H         4.259997   -0.311878   1.418749 H        1 UNL1     0.2098
     105 H         0.681453   1.332271   -0.87833 H        1 UNL1     0.0234
     106 H         1.34783   -0.322764   -0.967202 H        1 UNL1     0.0234
     107 H         0.0   -0.0   0.0 H        1 UNL1     0.0234
     108 H         0.926018   3.21392   1.897187 H        1 UNL1     0.2098
     109 H         0.8478   3.13461   -0.686119 H        1 UNL1     0.0234
     110 H         -0.301761   2.342056   -1.810028 H        1 UNL1     0.0234
     111 H         -0.218789   4.066344   -1.716272 H        1 UNL1     0.0234
     112 H         -3.506551   -1.991524   1.114032 H        1 UNL1     0.0342
     113 H         -3.492797   -0.35389   1.859823 H        1 UNL1     0.0342
     114 H         -4.429453   -0.660265   0.394633 H        1 UNL1     0.0342
     115 H         -2.920244   1.609351   3.237132 H        1 UNL1     0.0234
     116 H         -1.488333   1.475549   4.263052 H        1 UNL1     0.0234
     117 H         -1.886804   2.954427   3.364281 H        1 UNL1     0.0234
     118 H         0.217975   7.322007   -0.412899 H        1 UNL1     0.0309
     119 H         1.394338   8.250909   -1.393395 H        1 UNL1     0.0309
     120 H         1.240269   6.51432   -1.54399 H        1 UNL1     0.0309
     121 H         -1.329293   5.113184   4.163588 H        1 UNL1     0.0524
     122 H         -1.262444   6.219311   2.785592 H        1 UNL1     0.0524
     123 H         -2.767002   5.329251   3.128873 H        1 UNL1     0.0524
@<TRIPOS>BOND
     1     1     2    1
     2     1    42    1
     3     2     3    2
     4     3     4    1
     5     4     5    2
     6     5     7    1
     7     6    75    1
     8     6    76    1
     9     6    77    1
    10     7     9   am
    11     9    10    1
    12    10    11    2
    13    10    43    1
    14    11    14    1
    15    11    15    1
    16    12    13   ar
    17    12    27   ar
    18    12    43    1
    19    13    14    1
    20    13    30   ar
    21    14    17    2
    22    15    16    1
    23    16    17    1
    24    16    18    1
    25    16    22    1
    26    18    19    1
    27    19    20    1
    28    20    21    1
    29    21    22    1
    30    23    24    1
    31    23    88    1
    32    23    89    1
    33    24    25    1
    34    24    26    1
    35    24    90    1
    36    25    91    1
    37    25    92    1
    38    25    93    1
    39    26    94    1
    40    26    95    1
    41    26    96    1
    42    27    28   ar
    43    28    29   ar
    44    29    30   ar
    45    29    31    1
    46    30    33    1
    47    31    32    1
    48    32    33    1
    49    32    35    1
    50    34    97    1
    51    34    98    1
    52    34    99    1
    53    35    61    1
    54    36    37    1
    55    36    60    1
    56    37    38    1
    57    38    39    1
    58    39    40    1
    59    40    41    1
    60    41    42    1
    61    45   100    1
    62    47   101    1
    63    47   102    1
    64    47   103    1
    65    48   104    1
    66    49   105    1
    67    49   106    1
    68    49   107    1
    69    50   108    1
    70    51    59    1
    71    52   109    1
    72    52   110    1
    73    52   111    1
    74    53    54    1
    75    54    55    2
    76    54    56    1
    77    56   112    1
    78    56   113    1
    79    56   114    1
    80    57   115    1
    81    57   116    1
    82    57   117    1
    83    58   118    1
    84    58   119    1
    85    58   120    1
    86    59   121    1
    87    59   122    1
    88    59   123    1
    89    60    61    2
    90     1    47    1
    91     1    62    1
    92     2    63    1
    93     3    64    1
    94     4    65    1
    95     5     6    1
    96     7     8    2
    97     9    78    1
    98    15    79    1
    99    18    80    1
   100    18    81    1
   101    19    82    1
   102    19    83    1
   103    20    23    1
   104    21    84    1
   105    21    85    1
   106    22    86    1
   107    22    87    1
   108    27    45    1
   109    28    34    1
   110    32    58    1
   111    33    46    2
   112    36    51    1
   113    36    66    1
   114    37    52    1
   115    37    67    1
   116    38    53    1
   117    38    68    1
   118    42    48    1
   119    42    72    1
   120    43    44    2
   121    60    73    1
   122    61    74    1
   123    39    69    1
   124    39    57    1
   125    40    70    1
   126    40    50    1
   127    41    71    1
   128    41    49    1
