@<TRIPOS>MOLECULE
*****
 123 128 0 0 0
SMALL
GASTEIGER

@<TRIPOS>ATOM
     1 C         4.217989   1.557189   -1.782009 C.3        1 UNL1     0.0009
     2 C         5.46747   2.804822   -1.216993 C.2        1 UNL1     -0.0787
     3 C         6.175823   4.051767   -1.415517 C.2        1 UNL1     -0.0649
     4 C         7.256372   4.814389   -0.358551 C.2        1 UNL1     -0.0542
     5 C         7.878852   6.04128   -0.020416 C.2        1 UNL1     0.0115
     6 C         8.117456   7.50162   -0.493487 C.3        1 UNL1     -0.0348
     7 C         8.540117   6.20213   1.433491 C.2        1 UNL1     0.2441
     8 O         9.745658   6.128897   1.628 O.2        1 UNL1     -0.2702
     9 N         7.67146   6.690888   2.424805 N.am        1 UNL1     -0.2772
     10 C         6.996646   5.653337   3.026 C.2        1 UNL1     0.1049
     11 C         5.923178   5.213768   2.394599 C.2        1 UNL1     0.0801
     12 C         7.339557   3.412434   4.083403 C.ar        1 UNL1     0.0753
     13 C         6.302339   2.93392   3.220957 C.ar        1 UNL1     0.0305
     14 C         5.47139   3.849592   2.44242 C.2        1 UNL1     0.0924
     15 N         5.250649   5.746749   1.360112 N.pl3        1 UNL1     -0.3170
     16 C         4.057241   4.967401   1.163523 C.3        1 UNL1     0.1275
     17 N         4.414038   3.593885   1.677209 N.2        1 UNL1     -0.2557
     18 C         2.998258   5.513916   2.116192 C.3        1 UNL1     0.0016
     19 C         2.827352   7.001351   1.851767 C.3        1 UNL1     0.0026
     20 N         2.428889   7.186868   0.463301 N.3        1 UNL1     -0.3018
     21 C         3.356161   6.637956   -0.528279 C.3        1 UNL1     0.0026
     22 C         3.509495   5.142249   -0.246778 C.3        1 UNL1     0.0016
     23 C         1.952379   8.527619   0.187675 C.3        1 UNL1     0.0012
     24 C         1.990196   8.812968   -1.321929 C.3        1 UNL1     -0.0339
     25 C         0.744673   8.256095   -2.030886 C.3        1 UNL1     -0.0615
     26 C         2.15314   10.3031   -1.56634 C.3        1 UNL1     -0.0615
     27 C         8.046226   2.54473   4.912755 C.ar        1 UNL1     0.1347
     28 C         7.779581   1.189705   4.995574 C.ar        1 UNL1     0.0342
     29 C         6.787651   0.733187   4.101801 C.ar        1 UNL1     0.1435
     30 C         6.096402   1.584932   3.239291 C.ar        1 UNL1     0.0774
     31 O         6.337683   -0.540062   4.138879 O.3        1 UNL1     -0.4436
     32 C         5.071149   -0.496889   3.464418 C.3        1 UNL1     0.3143
     33 C         5.138135   0.727254   2.573799 C.2        1 UNL1     0.2504
     34 C         8.318307   0.247026   6.035396 C.3        1 UNL1     -0.0327
     35 O         5.009448   -1.638449   2.600539 O.2        1 UNL1     -0.4528
     36 C         1.335507   -2.560423   2.355155 C.3        1 UNL1     0.0854
     37 C         0.11672   -1.679198   1.880264 C.3        1 UNL1     0.0236
     38 C         -0.75302   -2.313158   0.691402 C.3        1 UNL1     0.1131
     39 C         -0.032187   -2.837588   -0.615366 C.3        1 UNL1     0.0200
     40 C         1.185452   -1.944997   -1.324644 C.3        1 UNL1     0.0661
     41 C         1.113089   -0.294171   -1.708243 C.3        1 UNL1     0.0091
     42 C         2.431761   0.980954   -1.731945 C.3        1 UNL1     0.0661
     43 C         7.577284   4.876487   4.131313 C.2        1 UNL1     0.2131
     44 O         8.121333   5.43986   5.063707 O.2        1 UNL1     -0.2851
     45 O         9.070948   3.084271   5.687531 O.3        1 UNL1     -0.5056
     46 O         4.549868   0.937698   1.536732 O.2        1 UNL1     -0.2836
     47 C         4.78595   0.72048   -2.959854 C.3        1 UNL1     -0.0566
     48 O         2.049137   1.515233   -3.061328 O.3        1 UNL1     -0.3909
     49 C         -0.079797   0.31768   -1.008133 C.3        1 UNL1     -0.0577
     50 O         2.43607   -2.251193   -0.741616 O.3        1 UNL1     -0.3910
     51 O         1.614524   -3.699065   1.572163 O.3        1 UNL1     -0.3753
     52 C         0.441796   -0.151271   1.948918 C.3        1 UNL1     -0.0564
     53 O         -2.083193   -1.645536   0.498407 O.3        1 UNL1     -0.4608
     54 C         -2.861032   -1.733088   -0.626418 C.2        1 UNL1     0.3042
     55 O         -3.909502   -2.362439   -0.762302 O.2        1 UNL1     -0.2512
     56 C         -2.356794   -0.902924   -1.772404 C.3        1 UNL1     0.0332
     57 C         0.202178   -4.409882   -0.438906 C.3        1 UNL1     -0.0567
     58 C         4.001829   -0.261382   4.55649 C.3        1 UNL1     0.0210
     59 C         2.908082   -3.710205   0.970127 C.3        1 UNL1     0.0372
     60 C         2.619177   -1.824356   2.515021 C.2        1 UNL1     -0.0208
     61 C         3.854593   -2.147346   2.130091 C.2        1 UNL1     0.0882
     62 H         4.408459   0.981102   -0.868468 H        1 UNL1     0.0365
     63 H         5.863213   2.308594   -0.32839 H        1 UNL1     0.0576
     64 H         5.934739   4.721409   -2.244109 H        1 UNL1     0.0615
     65 H         7.490229   4.04084   0.377938 H        1 UNL1     0.0622
     66 H         1.055109   -2.89945   3.362371 H        1 UNL1     0.0645
     67 H         -0.594469   -1.728818   2.723061 H        1 UNL1     0.0362
     68 H         -1.128952   -3.214579   1.198982 H        1 UNL1     0.0741
     69 H         -0.76323   -2.914216   -1.409163 H        1 UNL1     0.0359
     70 H         1.219346   -2.426395   -2.32072 H        1 UNL1     0.0600
     71 H         0.745323   -0.354065   -2.751372 H        1 UNL1     0.0348
     72 H         2.947345   0.010648   -1.776627 H        1 UNL1     0.0602
     73 H         2.460952   -0.97678   3.134559 H        1 UNL1     0.0628
     74 H         4.094441   -2.964626   1.449089 H        1 UNL1     0.1022
     75 H         7.911533   7.598114   -1.586794 H        1 UNL1     0.0279
     76 H         7.468999   8.26248   -0.064926 H        1 UNL1     0.0279
     77 H         9.175917   7.796657   -0.445371 H        1 UNL1     0.0279
     78 H         6.977414   7.302472   2.000138 H        1 UNL1     0.1553
     79 H         5.32297   6.709125   1.085273 H        1 UNL1     0.1484
     80 H         2.059868   4.968657   1.958447 H        1 UNL1     0.0317
     81 H         3.286579   5.346333   3.159474 H        1 UNL1     0.0317
     82 H         3.745327   7.5633   2.078589 H        1 UNL1     0.0428
     83 H         2.069264   7.371088   2.542887 H        1 UNL1     0.0428
     84 H         2.995586   6.719525   -1.558397 H        1 UNL1     0.0428
     85 H         4.312661   7.178653   -0.536811 H        1 UNL1     0.0428
     86 H         4.084614   4.751015   -1.065413 H        1 UNL1     0.0317
     87 H         2.54058   4.639489   -0.354166 H        1 UNL1     0.0317
     88 H         0.911795   8.597485   0.5306 H        1 UNL1     0.0429
     89 H         2.526357   9.277647   0.746943 H        1 UNL1     0.0429
     90 H         2.879356   8.339453   -1.754816 H        1 UNL1     0.0308
     91 H         0.441051   7.295025   -1.60514 H        1 UNL1     0.0233
     92 H         -0.088043   8.959605   -1.958306 H        1 UNL1     0.0233
     93 H         0.912756   8.090676   -3.101969 H        1 UNL1     0.0233
     94 H         2.307887   10.496127   -2.633406 H        1 UNL1     0.0233
     95 H         1.248903   10.833801   -1.255415 H        1 UNL1     0.0233
     96 H         3.006738   10.706954   -1.014761 H        1 UNL1     0.0233
     97 H         8.082603   -0.788327   5.807977 H        1 UNL1     0.0280
     98 H         9.412383   0.296412   6.111647 H        1 UNL1     0.0280
     99 H         7.882571   0.492912   7.017623 H        1 UNL1     0.0280
     100 H         9.425325   2.497035   6.331886 H        1 UNL1     0.2922
     101 H         5.333619   1.370377   -3.642019 H        1 UNL1     0.0236
     102 H         4.025653   0.134479   -3.475155 H        1 UNL1     0.0236
     103 H         5.529704   -0.019954   -2.62106 H        1 UNL1     0.0236
     104 H         1.249096   2.063101   -2.939895 H        1 UNL1     0.2098
     105 H         -0.095251   1.404665   -1.014215 H        1 UNL1     0.0234
     106 H         -1.045352   -0.07564   -1.325828 H        1 UNL1     0.0234
     107 H         0.0   0.0   0.0 H        1 UNL1     0.0234
     108 H         2.992152   -1.451373   -0.811109 H        1 UNL1     0.2098
     109 H         0.965032   0.203495   1.049987 H        1 UNL1     0.0234
     110 H         -0.442976   0.469429   2.126832 H        1 UNL1     0.0234
     111 H         1.105689   0.083804   2.791493 H        1 UNL1     0.0234
     112 H         -3.183288   -0.657747   -2.446305 H        1 UNL1     0.0342
     113 H         -1.84901   -0.001446   -1.432791 H        1 UNL1     0.0342
     114 H         -1.629012   -1.502531   -2.336293 H        1 UNL1     0.0342
     115 H         0.800936   -4.63585   0.454187 H        1 UNL1     0.0234
     116 H         -0.719483   -4.991367   -0.372081 H        1 UNL1     0.0234
     117 H         0.827767   -4.853221   -1.232651 H        1 UNL1     0.0234
     118 H         3.625969   -1.209224   4.979965 H        1 UNL1     0.0309
     119 H         4.353374   0.380191   5.37074 H        1 UNL1     0.0309
     120 H         3.097475   0.215771   4.16333 H        1 UNL1     0.0309
     121 H         3.504061   -2.937504   1.454997 H        1 UNL1     0.0524
     122 H         3.428922   -4.671266   1.115469 H        1 UNL1     0.0524
     123 H         2.828862   -3.509593   -0.094567 H        1 UNL1     0.0524
@<TRIPOS>BOND
     1     1     2    1
     2     1    42    1
     3     2     3    2
     4     3     4    1
     5     4     5    2
     6     5     7    1
     7     6    75    1
     8     6    76    1
     9     6    77    1
    10     7     9   am
    11     9    10    1
    12    10    11    2
    13    10    43    1
    14    11    14    1
    15    11    15    1
    16    12    13   ar
    17    12    27   ar
    18    12    43    1
    19    13    14    1
    20    13    30   ar
    21    14    17    2
    22    15    16    1
    23    16    17    1
    24    16    18    1
    25    16    22    1
    26    18    19    1
    27    19    20    1
    28    20    21    1
    29    21    22    1
    30    23    24    1
    31    23    88    1
    32    23    89    1
    33    24    25    1
    34    24    26    1
    35    24    90    1
    36    25    91    1
    37    25    92    1
    38    25    93    1
    39    26    94    1
    40    26    95    1
    41    26    96    1
    42    27    28   ar
    43    28    29   ar
    44    29    30   ar
    45    29    31    1
    46    30    33    1
    47    31    32    1
    48    32    33    1
    49    32    35    1
    50    34    97    1
    51    34    98    1
    52    34    99    1
    53    35    61    1
    54    36    37    1
    55    36    60    1
    56    37    38    1
    57    38    39    1
    58    39    40    1
    59    40    41    1
    60    41    42    1
    61    45   100    1
    62    47   101    1
    63    47   102    1
    64    47   103    1
    65    48   104    1
    66    49   105    1
    67    49   106    1
    68    49   107    1
    69    50   108    1
    70    51    59    1
    71    52   109    1
    72    52   110    1
    73    52   111    1
    74    53    54    1
    75    54    55    2
    76    54    56    1
    77    56   112    1
    78    56   113    1
    79    56   114    1
    80    57   115    1
    81    57   116    1
    82    57   117    1
    83    58   118    1
    84    58   119    1
    85    58   120    1
    86    59   121    1
    87    59   122    1
    88    59   123    1
    89    60    61    2
    90     1    47    1
    91     1    62    1
    92     2    63    1
    93     3    64    1
    94     4    65    1
    95     5     6    1
    96     7     8    2
    97     9    78    1
    98    15    79    1
    99    18    80    1
   100    18    81    1
   101    19    82    1
   102    19    83    1
   103    20    23    1
   104    21    84    1
   105    21    85    1
   106    22    86    1
   107    22    87    1
   108    27    45    1
   109    28    34    1
   110    32    58    1
   111    33    46    2
   112    36    51    1
   113    36    66    1
   114    37    52    1
   115    37    67    1
   116    38    53    1
   117    38    68    1
   118    42    48    1
   119    42    72    1
   120    43    44    2
   121    60    73    1
   122    61    74    1
   123    39    69    1
   124    39    57    1
   125    40    70    1
   126    40    50    1
   127    41    71    1
   128    41    49    1
