@<TRIPOS>MOLECULE
*****
 123 128 0 0 0
SMALL
GASTEIGER

@<TRIPOS>ATOM
     1 C         5.17139   1.740041   0.477758 C.3        1 UNL1     0.0009
     2 C         6.607571   2.54273   -0.376709 C.2        1 UNL1     -0.0787
     3 C         7.88775   2.441586   -1.045258 C.2        1 UNL1     -0.0649
     4 C         8.765676   3.674383   -1.804082 C.2        1 UNL1     -0.0542
     5 C         9.784079   3.964266   -2.745306 C.2        1 UNL1     0.0115
     6 C         10.90918   3.33594   -3.612875 C.3        1 UNL1     -0.0348
     7 C         9.880682   5.446742   -3.353517 C.2        1 UNL1     0.2441
     8 O         10.70689   6.267292   -2.978547 O.2        1 UNL1     -0.2702
     9 N         9.128162   5.653879   -4.522687 N.am        1 UNL1     -0.2772
     10 C         7.846858   6.043166   -4.206397 C.2        1 UNL1     0.1049
     11 C         7.000008   5.073559   -3.91156 C.2        1 UNL1     0.0801
     12 C         6.554559   7.653547   -2.794317 C.ar        1 UNL1     0.0753
     13 C         5.794512   6.527439   -2.343966 C.ar        1 UNL1     0.0305
     14 C         5.907638   5.220886   -2.988305 C.2        1 UNL1     0.0924
     15 N         7.119891   3.744206   -4.069593 N.pl3        1 UNL1     -0.3170
     16 C         5.849684   3.147622   -3.751921 C.3        1 UNL1     0.1275
     17 N         5.217228   4.104973   -2.771512 N.2        1 UNL1     -0.2557
     18 C         4.994062   3.206953   -5.013702 C.3        1 UNL1     0.0016
     19 C         5.745143   2.520383   -6.143343 C.3        1 UNL1     0.0026
     20 N         6.013703   1.142187   -5.756716 N.3        1 UNL1     -0.3018
     21 C         6.779598   0.981669   -4.518973 C.3        1 UNL1     0.0026
     22 C         6.004647   1.674702   -3.396899 C.3        1 UNL1     0.0016
     23 C         6.454212   0.320745   -6.866594 C.3        1 UNL1     0.0012
     24 C         5.296086   0.072353   -7.845777 C.3        1 UNL1     -0.0339
     25 C         5.370631   1.017417   -9.056295 C.3        1 UNL1     -0.0615
     26 C         5.279814   -1.384667   -8.274274 C.3        1 UNL1     -0.0615
     27 C         6.353395   8.922145   -2.255512 C.ar        1 UNL1     0.1347
     28 C         5.397014   9.194369   -1.293598 C.ar        1 UNL1     0.0342
     29 C         4.69448   8.061637   -0.830425 C.ar        1 UNL1     0.1435
     30 C         4.910478   6.778714   -1.335075 C.ar        1 UNL1     0.0774
     31 O         3.655645   8.177921   0.025324 O.3        1 UNL1     -0.4436
     32 C         2.931444   6.946252   -0.113946 C.3        1 UNL1     0.3143
     33 C         3.941747   5.950802   -0.647406 C.2        1 UNL1     0.2504
     34 C         4.953623   10.561712   -0.853281 C.3        1 UNL1     -0.0327
     35 O         2.573038   6.511521   1.203554 O.2        1 UNL1     -0.4528
     36 C         -0.674353   4.584739   0.816185 C.3        1 UNL1     0.0854
     37 C         -0.983962   3.3238   -0.079191 C.3        1 UNL1     0.0236
     38 C         -1.584964   2.064627   0.711392 C.3        1 UNL1     0.1131
     39 C         -0.857179   1.533707   2.01167 C.3        1 UNL1     0.0200
     40 C         0.803841   1.385233   2.049186 C.3        1 UNL1     0.0661
     41 C         1.759156   0.613509   0.878962 C.3        1 UNL1     0.0091
     42 C         3.466093   0.972442   0.310685 C.3        1 UNL1     0.0661
     43 C         7.50166   7.443014   -3.917231 C.2        1 UNL1     0.2131
     44 O         7.9015   8.339649   -4.637586 O.2        1 UNL1     -0.2851
     45 O         7.166458   9.955334   -2.716909 O.3        1 UNL1     -0.5056
     46 O         3.955885   4.747374   -0.515444 O.2        1 UNL1     -0.2836
     47 C         5.570278   1.311312   1.915485 C.3        1 UNL1     -0.0566
     48 O         3.91232   -0.43938   0.392878 O.3        1 UNL1     -0.3909
     49 C         0.921716   0.381156   -0.358859 C.3        1 UNL1     -0.0577
     50 O         1.407113   2.602417   2.439376 O.3        1 UNL1     -0.3910
     51 O         -0.795591   4.396698   2.20808 O.3        1 UNL1     -0.3753
     52 C         0.05756   3.160291   -1.233941 C.3        1 UNL1     -0.0564
     53 O         -2.191485   1.025811   -0.186004 O.3        1 UNL1     -0.4608
     54 C         -2.427451   -0.280174   0.155542 C.2        1 UNL1     0.3042
     55 O         -1.860123   -1.280664   -0.28149 O.2        1 UNL1     -0.2512
     56 C         -3.466811   -0.442982   1.227893 C.3        1 UNL1     0.0332
     57 C         -1.574115   2.205271   3.273882 C.3        1 UNL1     -0.0567
     58 C         1.854205   7.192165   -1.195894 C.3        1 UNL1     0.0210
     59 C         -1.104981   5.577014   2.947673 C.3        1 UNL1     0.0372
     60 C         0.655233   5.211207   0.58188 C.2        1 UNL1     -0.0208
     61 C         1.570938   5.645689   1.448745 C.2        1 UNL1     0.0882
     62 H         4.697433   2.725153   0.56511 H        1 UNL1     0.0365
     63 H         6.343452   3.597111   -0.271871 H        1 UNL1     0.0576
     64 H         8.343165   1.473693   -1.266365 H        1 UNL1     0.0615
     65 H         8.281029   4.591004   -1.457084 H        1 UNL1     0.0622
     66 H         -1.418377   5.332284   0.506907 H        1 UNL1     0.0645
     67 H         -1.850357   3.634093   -0.688813 H        1 UNL1     0.0362
     68 H         -2.530441   2.503558   1.064855 H        1 UNL1     0.0741
     69 H         -1.190061   0.523405   2.208868 H        1 UNL1     0.0359
     70 H         0.916458   0.725603   2.930812 H        1 UNL1     0.0600
     71 H         1.801892   -0.407296   1.306848 H        1 UNL1     0.0348
     72 H         3.363337   1.461837   1.290098 H        1 UNL1     0.0602
     73 H         0.771099   5.407186   -0.455142 H        1 UNL1     0.0628
     74 H         1.555474   5.43615   2.518835 H        1 UNL1     0.1022
     75 H         10.933367   2.22736   -3.480587 H        1 UNL1     0.0279
     76 H         10.806699   3.441073   -4.69061 H        1 UNL1     0.0279
     77 H         11.916339   3.617001   -3.271791 H        1 UNL1     0.0279
     78 H         9.063397   4.783506   -5.046456 H        1 UNL1     0.1553
     79 H         7.782973   3.314391   -4.688072 H        1 UNL1     0.1484
     80 H         4.032352   2.717942   -4.816854 H        1 UNL1     0.0317
     81 H         4.768687   4.243832   -5.285249 H        1 UNL1     0.0317
     82 H         6.676183   3.049761   -6.394014 H        1 UNL1     0.0428
     83 H         5.118041   2.575733   -7.033697 H        1 UNL1     0.0428
     84 H         6.898761   -0.06118   -4.209009 H        1 UNL1     0.0428
     85 H         7.810107   1.347747   -4.625538 H        1 UNL1     0.0428
     86 H         6.522709   1.424344   -2.489749 H        1 UNL1     0.0317
     87 H         5.024639   1.198951   -3.269067 H        1 UNL1     0.0317
     88 H         7.250029   0.860573   -7.39627 H        1 UNL1     0.0429
     89 H         6.88592   -0.625441   -6.515689 H        1 UNL1     0.0429
     90 H         4.344889   0.242846   -7.327732 H        1 UNL1     0.0308
     91 H         6.385184   1.063061   -9.46336 H        1 UNL1     0.0233
     92 H         4.683317   0.694193   -9.841619 H        1 UNL1     0.0233
     93 H         5.083255   2.044901   -8.802274 H        1 UNL1     0.0233
     94 H         4.585553   -1.524898   -9.109841 H        1 UNL1     0.0233
     95 H         6.276021   -1.68672   -8.609382 H        1 UNL1     0.0233
     96 H         4.969993   -2.038374   -7.454124 H        1 UNL1     0.0233
     97 H         4.155593   10.514254   -0.118349 H        1 UNL1     0.0280
     98 H         5.766061   11.127309   -0.378622 H        1 UNL1     0.0280
     99 H         4.587767   11.12938   -1.724485 H        1 UNL1     0.0280
     100 H         6.700046   10.706973   -3.038034 H        1 UNL1     0.2922
     101 H         4.704743   0.891165   2.427327 H        1 UNL1     0.0236
     102 H         6.03491   2.113039   2.488489 H        1 UNL1     0.0236
     103 H         6.315893   0.498756   1.913482 H        1 UNL1     0.0236
     104 H         4.32826   -0.566783   1.26794 H        1 UNL1     0.2098
     105 H         0.709357   1.279776   -0.932617 H        1 UNL1     0.0234
     106 H         1.288183   -0.408201   -1.015017 H        1 UNL1     0.0234
     107 H         0.0   -0.0   0.0 H        1 UNL1     0.0234
     108 H         1.223142   3.255608   1.737049 H        1 UNL1     0.2098
     109 H         1.084533   3.057761   -0.856415 H        1 UNL1     0.0234
     110 H         -0.171257   2.325291   -1.904881 H        1 UNL1     0.0234
     111 H         0.070013   4.037171   -1.894904 H        1 UNL1     0.0234
     112 H         -3.591497   -1.503376   1.467399 H        1 UNL1     0.0342
     113 H         -3.228339   0.133716   2.120302 H        1 UNL1     0.0342
     114 H         -4.424032   -0.071146   0.837213 H        1 UNL1     0.0342
     115 H         -2.644091   1.95895   3.314705 H        1 UNL1     0.0234
     116 H         -1.135947   1.925723   4.234043 H        1 UNL1     0.0234
     117 H         -1.610857   3.307144   3.224201 H        1 UNL1     0.0234
     118 H         0.954329   7.6797   -0.78172 H        1 UNL1     0.0309
     119 H         2.222251   7.779913   -2.042828 H        1 UNL1     0.0309
     120 H         1.464095   6.260498   -1.62006 H        1 UNL1     0.0309
     121 H         -0.265962   6.26371   2.838804 H        1 UNL1     0.0524
     122 H         -2.003852   6.08765   2.563852 H        1 UNL1     0.0524
     123 H         -1.257526   5.334745   3.99559 H        1 UNL1     0.0524
@<TRIPOS>BOND
     1     1     2    1
     2     1    42    1
     3     2     3    2
     4     3     4    1
     5     4     5    2
     6     5     7    1
     7     6    75    1
     8     6    76    1
     9     6    77    1
    10     7     9   am
    11     9    10    1
    12    10    11    2
    13    10    43    1
    14    11    14    1
    15    11    15    1
    16    12    13   ar
    17    12    27   ar
    18    12    43    1
    19    13    14    1
    20    13    30   ar
    21    14    17    2
    22    15    16    1
    23    16    17    1
    24    16    18    1
    25    16    22    1
    26    18    19    1
    27    19    20    1
    28    20    21    1
    29    21    22    1
    30    23    24    1
    31    23    88    1
    32    23    89    1
    33    24    25    1
    34    24    26    1
    35    24    90    1
    36    25    91    1
    37    25    92    1
    38    25    93    1
    39    26    94    1
    40    26    95    1
    41    26    96    1
    42    27    28   ar
    43    28    29   ar
    44    29    30   ar
    45    29    31    1
    46    30    33    1
    47    31    32    1
    48    32    33    1
    49    32    35    1
    50    34    97    1
    51    34    98    1
    52    34    99    1
    53    35    61    1
    54    36    37    1
    55    36    60    1
    56    37    38    1
    57    38    39    1
    58    39    40    1
    59    40    41    1
    60    41    42    1
    61    45   100    1
    62    47   101    1
    63    47   102    1
    64    47   103    1
    65    48   104    1
    66    49   105    1
    67    49   106    1
    68    49   107    1
    69    50   108    1
    70    51    59    1
    71    52   109    1
    72    52   110    1
    73    52   111    1
    74    53    54    1
    75    54    55    2
    76    54    56    1
    77    56   112    1
    78    56   113    1
    79    56   114    1
    80    57   115    1
    81    57   116    1
    82    57   117    1
    83    58   118    1
    84    58   119    1
    85    58   120    1
    86    59   121    1
    87    59   122    1
    88    59   123    1
    89    60    61    2
    90     1    47    1
    91     1    62    1
    92     2    63    1
    93     3    64    1
    94     4    65    1
    95     5     6    1
    96     7     8    2
    97     9    78    1
    98    15    79    1
    99    18    80    1
   100    18    81    1
   101    19    82    1
   102    19    83    1
   103    20    23    1
   104    21    84    1
   105    21    85    1
   106    22    86    1
   107    22    87    1
   108    27    45    1
   109    28    34    1
   110    32    58    1
   111    33    46    2
   112    36    51    1
   113    36    66    1
   114    37    52    1
   115    37    67    1
   116    38    53    1
   117    38    68    1
   118    42    48    1
   119    42    72    1
   120    43    44    2
   121    60    73    1
   122    61    74    1
   123    39    69    1
   124    39    57    1
   125    40    70    1
   126    40    50    1
   127    41    71    1
   128    41    49    1
