@<TRIPOS>MOLECULE
*****
 123 128 0 0 0
SMALL
GASTEIGER

@<TRIPOS>ATOM
     1 C         5.167936   1.747836   0.486597 C.3        1 UNL1     0.0009
     2 C         6.604193   2.553155   -0.365263 C.2        1 UNL1     -0.0787
     3 C         7.885562   2.454314   -1.031873 C.2        1 UNL1     -0.0649
     4 C         8.762749   3.68883   -1.788754 C.2        1 UNL1     -0.0542
     5 C         9.782158   3.980738   -2.72826 C.2        1 UNL1     0.0115
     6 C         10.909578   3.354569   -3.594379 C.3        1 UNL1     -0.0348
     7 C         9.877403   5.46365   -3.335623 C.2        1 UNL1     0.2441
     8 O         10.701755   6.285303   -2.958987 O.2        1 UNL1     -0.2702
     9 N         9.126376   5.670172   -4.505862 N.am        1 UNL1     -0.2772
     10 C         7.843981   6.057321   -4.191377 C.2        1 UNL1     0.1049
     11 C         6.998181   5.086263   -3.89831 C.2        1 UNL1     0.0801
     12 C         6.546997   7.665027   -2.780545 C.ar        1 UNL1     0.0753
     13 C         5.788   6.537528   -2.331903 C.ar        1 UNL1     0.0305
     14 C         5.904154   5.231457   -2.976681 C.2        1 UNL1     0.0924
     15 N         7.120372   3.757171   -4.056782 N.pl3        1 UNL1     -0.3170
     16 C         5.850601   3.158468   -3.741361 C.3        1 UNL1     0.1275
     17 N         5.215141   4.114372   -2.761484 N.2        1 UNL1     -0.2557
     18 C         4.996845   3.217067   -5.00444 C.3        1 UNL1     0.0016
     19 C         5.750741   2.532198   -6.133238 C.3        1 UNL1     0.0026
     20 N         6.020841   1.154238   -5.746843 N.3        1 UNL1     -0.3018
     21 C         6.785064   0.994323   -4.50799 C.3        1 UNL1     0.0026
     22 C         6.0073   1.685622   -3.386793 C.3        1 UNL1     0.0016
     23 C         6.464345   0.334006   -6.856423 C.3        1 UNL1     0.0012
     24 C         5.308124   0.08428   -7.837518 C.3        1 UNL1     -0.0339
     25 C         5.38308   1.030031   -9.047474 C.3        1 UNL1     -0.0615
     26 C         5.294779   -1.37256   -8.266725 C.3        1 UNL1     -0.0615
     27 C         6.343029   8.933056   -2.241455 C.ar        1 UNL1     0.1347
     28 C         5.384735   9.203342   -1.280898 C.ar        1 UNL1     0.0342
     29 C         4.683243   8.069303   -0.819348 C.ar        1 UNL1     0.1435
     30 C         4.902015   6.786954   -1.324266 C.ar        1 UNL1     0.0774
     31 O         3.642904   8.18357   0.034843 O.3        1 UNL1     -0.4436
     32 C         2.920832   6.950845   -0.10613 C.3        1 UNL1     0.3143
     33 C         3.933505   5.957216   -0.638491 C.2        1 UNL1     0.2504
     34 C         4.938541   10.569786   -0.840626 C.3        1 UNL1     -0.0327
     35 O         2.561059   6.514935   1.210608 O.2        1 UNL1     -0.4528
     36 C         -0.682733   4.583301   0.817295 C.3        1 UNL1     0.0854
     37 C         -0.988996   3.322307   -0.079153 C.3        1 UNL1     0.0236
     38 C         -1.589268   2.061828   0.709904 C.3        1 UNL1     0.1131
     39 C         -0.862676   1.531424   2.01106 C.3        1 UNL1     0.0200
     40 C         0.798512   1.385509   2.051082 C.3        1 UNL1     0.0661
     41 C         1.756837   0.615822   0.881978 C.3        1 UNL1     0.0091
     42 C         3.464093   0.977671   0.316518 C.3        1 UNL1     0.0661
     43 C         7.496162   7.456495   -3.902088 C.2        1 UNL1     0.2131
     44 O         7.895727   8.35409   -4.621399 O.2        1 UNL1     -0.2851
     45 O         7.155201   9.967723   -2.701105 O.3        1 UNL1     -0.5056
     46 O         3.949306   4.753749   -0.507073 O.2        1 UNL1     -0.2836
     47 C         5.56526   1.319045   1.92474 C.3        1 UNL1     -0.0566
     48 O         3.912384   -0.433496   0.398739 O.3        1 UNL1     -0.3909
     49 C         0.921678   0.382756   -0.357249 C.3        1 UNL1     -0.0577
     50 O         1.399289   2.603443   2.44278 O.3        1 UNL1     -0.3910
     51 O         -0.805836   4.394413   2.208912 O.3        1 UNL1     -0.3753
     52 C         0.054568   3.16096   -1.232363 C.3        1 UNL1     -0.0564
     53 O         -2.192783   1.022498   -0.188921 O.3        1 UNL1     -0.4608
     54 C         -2.427252   -0.284013   0.151645 C.2        1 UNL1     0.3042
     55 O         -1.858715   -1.283517   -0.286072 O.2        1 UNL1     -0.2512
     56 C         -3.466515   -0.448825   1.223784 C.3        1 UNL1     0.0332
     57 C         -1.58261   2.201278   3.272474 C.3        1 UNL1     -0.0567
     58 C         1.844891   7.195598   -1.189632 C.3        1 UNL1     0.0210
     59 C         -1.118204   5.573898   2.94858 C.3        1 UNL1     0.0372
     60 C         0.646241   5.211942   0.585348 C.2        1 UNL1     -0.0208
     61 C         1.559925   5.647433   1.453837 C.2        1 UNL1     0.0882
     62 H         4.692316   2.73217   0.573678 H        1 UNL1     0.0365
     63 H         6.338275   3.607076   -0.260339 H        1 UNL1     0.0576
     64 H         8.342821   1.487234   -1.252729 H        1 UNL1     0.0615
     65 H         8.276143   4.604534   -1.442077 H        1 UNL1     0.0622
     66 H         -1.427436   5.329836   0.507216 H        1 UNL1     0.0645
     67 H         -1.854925   3.631543   -0.689972 H        1 UNL1     0.0362
     68 H         -2.535971   2.499125   1.062107 H        1 UNL1     0.0741
     69 H         -1.194295   0.520513   2.207265 H        1 UNL1     0.0359
     70 H         0.910786   0.725637   2.932572 H        1 UNL1     0.0600
     71 H         1.800494   -0.405118   1.30945 H        1 UNL1     0.0348
     72 H         3.35906   1.466442   1.296001 H        1 UNL1     0.0602
     73 H         0.76341   5.408591   -0.451401 H        1 UNL1     0.0628
     74 H         1.543128   5.437365   2.523803 H        1 UNL1     0.1022
     75 H         10.93528   2.245965   -3.462576 H        1 UNL1     0.0279
     76 H         10.808604   3.460053   -4.672222 H        1 UNL1     0.0279
     77 H         11.915769   3.637031   -3.251602 H        1 UNL1     0.0279
     78 H         9.063775   4.799948   -5.030141 H        1 UNL1     0.1553
     79 H         7.785078   3.328679   -4.674434 H        1 UNL1     0.1484
     80 H         4.035592   2.726472   -4.809314 H        1 UNL1     0.0317
     81 H         4.770283   4.253725   -5.275849 H        1 UNL1     0.0317
     82 H         6.681346   3.063138   -6.382215 H        1 UNL1     0.0428
     83 H         5.124935   2.586997   -7.024537 H        1 UNL1     0.0428
     84 H         6.905365   -0.048487   -4.198332 H        1 UNL1     0.0428
     85 H         7.815167   1.36205   -4.612783 H        1 UNL1     0.0428
     86 H         6.524342   1.435639   -2.478958 H        1 UNL1     0.0317
     87 H         5.027834   1.20829   -3.260705 H        1 UNL1     0.0317
     88 H         7.260143   0.875318   -7.384609 H        1 UNL1     0.0429
     89 H         6.896975   -0.611676   -6.505294 H        1 UNL1     0.0429
     90 H         4.355862   0.253052   -7.320869 H        1 UNL1     0.0308
     91 H         6.337684   0.929251   -9.572524 H        1 UNL1     0.0233
     92 H         4.566912   0.829631   -9.745557 H        1 UNL1     0.0233
     93 H         5.287801   2.084159   -8.760122 H        1 UNL1     0.0233
     94 H         4.602032   -1.513473   -9.103434 H        1 UNL1     0.0233
     95 H         6.291972   -1.672909   -8.60043 H        1 UNL1     0.0233
     96 H         4.984702   -2.027135   -7.447364 H        1 UNL1     0.0233
     97 H         4.139447   10.520743   -0.106955 H        1 UNL1     0.0280
     98 H         5.749363   11.136419   -0.364441 H        1 UNL1     0.0280
     99 H         4.573155   11.137298   -1.71213 H        1 UNL1     0.0280
     100 H         6.688122   10.71879   -3.022599 H        1 UNL1     0.2922
     101 H         4.699585   0.897314   2.43504 H        1 UNL1     0.0236
     102 H         6.027758   2.121222   2.498841 H        1 UNL1     0.0236
     103 H         6.312137   0.507648   1.923511 H        1 UNL1     0.0236
     104 H         4.327163   -0.560667   1.274385 H        1 UNL1     0.2098
     105 H         0.708815   1.281316   -0.930913 H        1 UNL1     0.0234
     106 H         1.290387   -0.405722   -1.013209 H        1 UNL1     0.0234
     107 H         0.0   -0.0   0.0 H        1 UNL1     0.0234
     108 H         1.215393   3.25668   1.740476 H        1 UNL1     0.2098
     109 H         1.081112   3.059845   -0.853293 H        1 UNL1     0.0234
     110 H         -0.171913   2.325923   -1.90405 H        1 UNL1     0.0234
     111 H         0.066684   4.038171   -1.892893 H        1 UNL1     0.0234
     112 H         -3.589981   -1.50954   1.462499 H        1 UNL1     0.0342
     113 H         -3.228796   0.127495   2.116638 H        1 UNL1     0.0342
     114 H         -4.424135   -0.077822   0.833291 H        1 UNL1     0.0342
     115 H         -2.652264   1.953277   3.311521 H        1 UNL1     0.0234
     116 H         -1.145497   1.921955   4.233182 H        1 UNL1     0.0234
     117 H         -1.620984   3.303116   3.223254 H        1 UNL1     0.0234
     118 H         0.943619   7.681541   -0.776625 H        1 UNL1     0.0309
     119 H         2.213337   7.784317   -2.035717 H        1 UNL1     0.0309
     120 H         1.456886   6.263527   -1.61484 H        1 UNL1     0.0309
     121 H         -0.280085   6.261947   2.841336 H        1 UNL1     0.0524
     122 H         -2.017271   6.083321   2.563605 H        1 UNL1     0.0524
     123 H         -1.271997   5.330897   3.996145 H        1 UNL1     0.0524
@<TRIPOS>BOND
     1     1     2    1
     2     1    42    1
     3     2     3    2
     4     3     4    1
     5     4     5    2
     6     5     7    1
     7     6    75    1
     8     6    76    1
     9     6    77    1
    10     7     9   am
    11     9    10    1
    12    10    11    2
    13    10    43    1
    14    11    14    1
    15    11    15    1
    16    12    13   ar
    17    12    27   ar
    18    12    43    1
    19    13    14    1
    20    13    30   ar
    21    14    17    2
    22    15    16    1
    23    16    17    1
    24    16    18    1
    25    16    22    1
    26    18    19    1
    27    19    20    1
    28    20    21    1
    29    21    22    1
    30    23    24    1
    31    23    88    1
    32    23    89    1
    33    24    25    1
    34    24    26    1
    35    24    90    1
    36    25    91    1
    37    25    92    1
    38    25    93    1
    39    26    94    1
    40    26    95    1
    41    26    96    1
    42    27    28   ar
    43    28    29   ar
    44    29    30   ar
    45    29    31    1
    46    30    33    1
    47    31    32    1
    48    32    33    1
    49    32    35    1
    50    34    97    1
    51    34    98    1
    52    34    99    1
    53    35    61    1
    54    36    37    1
    55    36    60    1
    56    37    38    1
    57    38    39    1
    58    39    40    1
    59    40    41    1
    60    41    42    1
    61    45   100    1
    62    47   101    1
    63    47   102    1
    64    47   103    1
    65    48   104    1
    66    49   105    1
    67    49   106    1
    68    49   107    1
    69    50   108    1
    70    51    59    1
    71    52   109    1
    72    52   110    1
    73    52   111    1
    74    53    54    1
    75    54    55    2
    76    54    56    1
    77    56   112    1
    78    56   113    1
    79    56   114    1
    80    57   115    1
    81    57   116    1
    82    57   117    1
    83    58   118    1
    84    58   119    1
    85    58   120    1
    86    59   121    1
    87    59   122    1
    88    59   123    1
    89    60    61    2
    90     1    47    1
    91     1    62    1
    92     2    63    1
    93     3    64    1
    94     4    65    1
    95     5     6    1
    96     7     8    2
    97     9    78    1
    98    15    79    1
    99    18    80    1
   100    18    81    1
   101    19    82    1
   102    19    83    1
   103    20    23    1
   104    21    84    1
   105    21    85    1
   106    22    86    1
   107    22    87    1
   108    27    45    1
   109    28    34    1
   110    32    58    1
   111    33    46    2
   112    36    51    1
   113    36    66    1
   114    37    52    1
   115    37    67    1
   116    38    53    1
   117    38    68    1
   118    42    48    1
   119    42    72    1
   120    43    44    2
   121    60    73    1
   122    61    74    1
   123    39    69    1
   124    39    57    1
   125    40    70    1
   126    40    50    1
   127    41    71    1
   128    41    49    1
