@<TRIPOS>MOLECULE
*****
 123 128 0 0 0
SMALL
GASTEIGER

@<TRIPOS>ATOM
     1 C         5.114627   1.906976   0.464523 C.3        1 UNL1     0.0009
     2 C         6.503557   2.795501   -0.383083 C.2        1 UNL1     -0.0787
     3 C         7.778609   2.769423   -1.068364 C.2        1 UNL1     -0.0649
     4 C         8.592163   4.060168   -1.802164 C.2        1 UNL1     -0.0542
     5 C         9.585188   4.420486   -2.746172 C.2        1 UNL1     0.0115
     6 C         10.726012   3.866538   -3.643382 C.3        1 UNL1     -0.0348
     7 C         9.609128   5.921896   -3.313783 C.2        1 UNL1     0.2441
     8 O         10.403081   6.767591   -2.92524 O.2        1 UNL1     -0.2702
     9 N         8.833896   6.127524   -4.468289 N.am        1 UNL1     -0.2772
     10 C         7.540734   6.45096   -4.12705 C.2        1 UNL1     0.1049
     11 C         6.740955   5.43714   -3.850022 C.2        1 UNL1     0.0801
     12 C         6.19649   7.963316   -2.656295 C.ar        1 UNL1     0.0753
     13 C         5.492209   6.792782   -2.229156 C.ar        1 UNL1     0.0305
     14 C         5.654628   5.510661   -2.910945 C.2        1 UNL1     0.0924
     15 N         6.917116   4.119218   -4.046436 N.pl3        1 UNL1     -0.3170
     16 C         5.678328   3.458571   -3.731468 C.3        1 UNL1     0.1275
     17 N         5.016587   4.359789   -2.717748 N.2        1 UNL1     -0.2557
     18 C         4.805448   3.514572   -4.981526 C.3        1 UNL1     0.0016
     19 C         5.571967   2.893103   -6.138165 C.3        1 UNL1     0.0026
     20 N         5.905504   1.518052   -5.793179 N.3        1 UNL1     -0.3018
     21 C         6.692896   1.357692   -4.568978 C.3        1 UNL1     0.0026
     22 C         5.902154   1.984767   -3.419457 C.3        1 UNL1     0.0016
     23 C         6.367938   0.74762   -6.930383 C.3        1 UNL1     0.0012
     24 C         5.209855   0.475193   -7.903206 C.3        1 UNL1     -0.0339
     25 C         5.248176   1.432943   -9.105414 C.3        1 UNL1     -0.0615
     26 C         5.231751   -0.97775   -8.345085 C.3        1 UNL1     -0.0615
     27 C         5.946491   9.206533   -2.080075 C.ar        1 UNL1     0.1347
     28 C         4.991005   9.409736   -1.100378 C.ar        1 UNL1     0.0342
     29 C         4.344626   8.23478   -0.661248 C.ar        1 UNL1     0.1435
     30 C         4.610494   6.976976   -1.203892 C.ar        1 UNL1     0.0774
     31 O         3.312309   8.281518   0.208892 O.3        1 UNL1     -0.4436
     32 C         2.641206   7.023312   0.043329 C.3        1 UNL1     0.3143
     33 C         3.68758   6.088504   -0.528901 C.2        1 UNL1     0.2504
     34 C         4.493484   10.743554   -0.617157 C.3        1 UNL1     -0.0327
     35 O         2.318485   6.537211   1.352073 O.2        1 UNL1     -0.4528
     36 C         -0.84573   4.480066   0.947118 C.3        1 UNL1     0.0854
     37 C         -1.110701   3.231686   0.020372 C.3        1 UNL1     0.0236
     38 C         -1.646071   1.925974   0.782107 C.3        1 UNL1     0.1131
     39 C         -0.879721   1.392316   2.058894 C.3        1 UNL1     0.0200
     40 C         0.786551   1.316459   2.073811 C.3        1 UNL1     0.0661
     41 C         1.76033   0.620096   0.871962 C.3        1 UNL1     0.0091
     42 C         3.442737   1.069593   0.295019 C.3        1 UNL1     0.0661
     43 C         7.138014   7.825723   -3.795093 C.2        1 UNL1     0.2131
     44 O         7.489209   8.758567   -4.494522 O.2        1 UNL1     -0.2851
     45 O         6.707675   10.28692   -2.521437 O.3        1 UNL1     -0.5056
     46 O         3.756151   4.883713   -0.43076 O.2        1 UNL1     -0.2836
     47 C         5.54963   1.457059   1.885202 C.3        1 UNL1     -0.0566
     48 O         3.951482   -0.322839   0.332798 O.3        1 UNL1     -0.3909
     49 C         0.91871   0.384955   -0.362493 C.3        1 UNL1     -0.0577
     50 O         1.340578   2.547975   2.491118 O.3        1 UNL1     -0.3910
     51 O         -0.941441   4.24877   2.334479 O.3        1 UNL1     -0.3753
     52 C         -0.077311   3.1461   -1.149982 C.3        1 UNL1     -0.0564
     53 O         -2.21742   0.886343   -0.137161 O.3        1 UNL1     -0.4608
     54 C         -2.36026   -0.444169   0.158248 C.2        1 UNL1     0.3042
     55 O         -1.650872   -1.374268   -0.223227 O.2        1 UNL1     -0.2512
     56 C         -3.493294   -0.732506   1.101544 C.3        1 UNL1     0.0332
     57 C         -1.609839   1.996675   3.347247 C.3        1 UNL1     -0.0567
     58 C         1.540965   7.250914   -1.019307 C.3        1 UNL1     0.0210
     59 C         -1.293206   5.393536   3.110132 C.3        1 UNL1     0.0372
     60 C         0.45209   5.170898   0.715656 C.2        1 UNL1     -0.0208
     61 C         1.358451   5.621522   1.584098 C.2        1 UNL1     0.0882
     62 H         4.599   2.867403   0.584606 H        1 UNL1     0.0365
     63 H         6.194724   3.833902   -0.245918 H        1 UNL1     0.0576
     64 H         8.27331   1.829038   -1.321454 H        1 UNL1     0.0615
     65 H         8.072062   4.944607   -1.424348 H        1 UNL1     0.0622
     66 H         -1.625602   5.202177   0.667113 H        1 UNL1     0.0645
     67 H         -1.997325   3.519957   -0.570694 H        1 UNL1     0.0362
     68 H         -2.605476   2.312817   1.158161 H        1 UNL1     0.0741
     69 H         -1.165483   0.363258   2.231486 H        1 UNL1     0.0359
     70 H         0.938865   0.638538   2.935369 H        1 UNL1     0.0600
     71 H         1.853099   -0.409166   1.270676 H        1 UNL1     0.0348
     72 H         3.330672   1.526937   1.288796 H        1 UNL1     0.0602
     73 H         0.546458   5.400158   -0.316712 H        1 UNL1     0.0628
     74 H         1.365383   5.382254   2.648025 H        1 UNL1     0.1022
     75 H         10.767506   2.752322   -3.581453 H        1 UNL1     0.0279
     76 H         10.628779   4.038248   -4.713023 H        1 UNL1     0.0279
     77 H         11.726206   4.141396   -3.277644 H        1 UNL1     0.0279
     78 H         8.800949   5.269821   -5.015407 H        1 UNL1     0.1553
     79 H         7.590755   3.736257   -4.683997 H        1 UNL1     0.1484
     80 H         3.868627   2.978304   -4.787748 H        1 UNL1     0.0317
     81 H         4.531451   4.547525   -5.221494 H        1 UNL1     0.0317
     82 H         6.475715   3.469803   -6.384273 H        1 UNL1     0.0428
     83 H         4.932119   2.945054   -7.01961 H        1 UNL1     0.0428
     84 H         6.861527   0.313029   -4.289598 H        1 UNL1     0.0428
     85 H         7.704952   1.771762   -4.67671 H        1 UNL1     0.0428
     86 H         6.441841   1.732791   -2.525458 H        1 UNL1     0.0317
     87 H         4.945622   1.462823   -3.29409 H        1 UNL1     0.0317
     88 H         7.132708   1.336423   -7.453578 H        1 UNL1     0.0429
     89 H         6.845049   -0.187814   -6.61085 H        1 UNL1     0.0429
     90 H         4.258203   0.613781   -7.376552 H        1 UNL1     0.0308
     91 H         6.257861   1.511196   -9.519558 H        1 UNL1     0.0233
     92 H         4.564321   1.097386   -9.888582 H        1 UNL1     0.0233
     93 H         4.933644   2.449466   -8.839733 H        1 UNL1     0.0233
     94 H         4.692721   -1.09281   -9.291681 H        1 UNL1     0.0233
     95 H         6.263321   -1.30486   -8.502644 H        1 UNL1     0.0233
     96 H         4.764961   -1.628426   -7.600306 H        1 UNL1     0.0233
     97 H         3.658317   10.642508   0.069514 H        1 UNL1     0.0280
     98 H         5.26607   11.300246   -0.070841 H        1 UNL1     0.0280
     99 H         4.162235   11.347684   -1.47762 H        1 UNL1     0.0280
     100 H         6.207909   11.051599   -2.747542 H        1 UNL1     0.2922
     101 H         4.686429   1.076267   2.430671 H        1 UNL1     0.0236
     102 H         6.073134   2.235159   2.439719 H        1 UNL1     0.0236
     103 H         6.256153   0.610886   1.853426 H        1 UNL1     0.0236
     104 H         4.302195   -0.484471   1.230487 H        1 UNL1     0.2098
     105 H         0.70043   1.28297   -0.934973 H        1 UNL1     0.0234
     106 H         1.285585   -0.402668   -1.020506 H        1 UNL1     0.0234
     107 H         0.0   -0.0   0.0 H        1 UNL1     0.0234
     108 H         1.158634   3.200994   1.788103 H        1 UNL1     0.2098
     109 H         0.267927   4.138016   -1.47344 H        1 UNL1     0.0234
     110 H         0.7872   2.515692   -0.915566 H        1 UNL1     0.0234
     111 H         -0.514097   2.677888   -2.042138 H        1 UNL1     0.0234
     112 H         -3.53884   -1.805431   1.311552 H        1 UNL1     0.0342
     113 H         -3.415783   -0.157016   2.022765 H        1 UNL1     0.0342
     114 H         -4.432087   -0.445803   0.60795 H        1 UNL1     0.0342
     115 H         -2.691072   1.801954   3.332859 H        1 UNL1     0.0234
     116 H         -1.220968   1.620091   4.295409 H        1 UNL1     0.0234
     117 H         -1.592416   3.099463   3.385941 H        1 UNL1     0.0234
     118 H         0.53342   7.29523   -0.569979 H        1 UNL1     0.0309
     119 H         1.704547   8.150416   -1.621254 H        1 UNL1     0.0309
     120 H         1.46441   6.420462   -1.729655 H        1 UNL1     0.0309
     121 H         -0.900443   5.243965   4.115479 H        1 UNL1     0.0524
     122 H         -0.846721   6.320702   2.713835 H        1 UNL1     0.0524
     123 H         -2.372977   5.508101   3.142748 H        1 UNL1     0.0524
@<TRIPOS>BOND
     1     1     2    1
     2     1    42    1
     3     2     3    2
     4     3     4    1
     5     4     5    2
     6     5     7    1
     7     6    75    1
     8     6    76    1
     9     6    77    1
    10     7     9   am
    11     9    10    1
    12    10    11    2
    13    10    43    1
    14    11    14    1
    15    11    15    1
    16    12    13   ar
    17    12    27   ar
    18    12    43    1
    19    13    14    1
    20    13    30   ar
    21    14    17    2
    22    15    16    1
    23    16    17    1
    24    16    18    1
    25    16    22    1
    26    18    19    1
    27    19    20    1
    28    20    21    1
    29    21    22    1
    30    23    24    1
    31    23    88    1
    32    23    89    1
    33    24    25    1
    34    24    26    1
    35    24    90    1
    36    25    91    1
    37    25    92    1
    38    25    93    1
    39    26    94    1
    40    26    95    1
    41    26    96    1
    42    27    28   ar
    43    28    29   ar
    44    29    30   ar
    45    29    31    1
    46    30    33    1
    47    31    32    1
    48    32    33    1
    49    32    35    1
    50    34    97    1
    51    34    98    1
    52    34    99    1
    53    35    61    1
    54    36    37    1
    55    36    60    1
    56    37    38    1
    57    38    39    1
    58    39    40    1
    59    40    41    1
    60    41    42    1
    61    45   100    1
    62    47   101    1
    63    47   102    1
    64    47   103    1
    65    48   104    1
    66    49   105    1
    67    49   106    1
    68    49   107    1
    69    50   108    1
    70    51    59    1
    71    52   109    1
    72    52   110    1
    73    52   111    1
    74    53    54    1
    75    54    55    2
    76    54    56    1
    77    56   112    1
    78    56   113    1
    79    56   114    1
    80    57   115    1
    81    57   116    1
    82    57   117    1
    83    58   118    1
    84    58   119    1
    85    58   120    1
    86    59   121    1
    87    59   122    1
    88    59   123    1
    89    60    61    2
    90     1    47    1
    91     1    62    1
    92     2    63    1
    93     3    64    1
    94     4    65    1
    95     5     6    1
    96     7     8    2
    97     9    78    1
    98    15    79    1
    99    18    80    1
   100    18    81    1
   101    19    82    1
   102    19    83    1
   103    20    23    1
   104    21    84    1
   105    21    85    1
   106    22    86    1
   107    22    87    1
   108    27    45    1
   109    28    34    1
   110    32    58    1
   111    33    46    2
   112    36    51    1
   113    36    66    1
   114    37    52    1
   115    37    67    1
   116    38    53    1
   117    38    68    1
   118    42    48    1
   119    42    72    1
   120    43    44    2
   121    60    73    1
   122    61    74    1
   123    39    69    1
   124    39    57    1
   125    40    70    1
   126    40    50    1
   127    41    71    1
   128    41    49    1
