@<TRIPOS>MOLECULE
*****
 123 128 0 0 0
SMALL
GASTEIGER

@<TRIPOS>ATOM
     1 C         -1.855749   3.403066   -1.879737 C.3        1 UNL1     0.0009
     2 C         -3.262734   4.432186   -1.248594 C.2        1 UNL1     -0.0787
     3 C         -4.651633   4.835705   -1.313231 C.2        1 UNL1     -0.0649
     4 C         -5.485949   5.866128   -0.260377 C.2        1 UNL1     -0.0542
     5 C         -6.763454   6.261582   0.20725 C.2        1 UNL1     0.0115
     6 C         -8.2905   6.129334   -0.04566 C.3        1 UNL1     -0.0348
     7 C         -6.869305   7.062065   1.594698 C.2        1 UNL1     0.2441
     8 O         -7.041885   8.271726   1.653526 O.2        1 UNL1     -0.2702
     9 N         -7.0122   6.250408   2.733533 N.am        1 UNL1     -0.2772
     10 C         -5.778256   5.889571   3.223942 C.2        1 UNL1     0.1049
     11 C         -5.19957   4.855788   2.640302 C.2        1 UNL1     0.0801
     12 C         -3.548612   6.823846   3.86671 C.ar        1 UNL1     0.0753
     13 C         -2.971801   5.802643   3.04632 C.ar        1 UNL1     0.0305
     14 C         -3.775364   4.705222   2.51246 C.2        1 UNL1     0.0924
     15 N         -5.703944   3.956935   1.777632 N.pl3        1 UNL1     -0.3170
     16 C         -4.711475   2.93446   1.578121 C.3        1 UNL1     0.1275
     17 N         -3.395899   3.631457   1.825465 N.2        1 UNL1     -0.2557
     18 C         -4.872789   1.921255   2.707322 C.3        1 UNL1     0.0016
     19 C         -6.306068   1.414016   2.704522 C.3        1 UNL1     0.0026
     20 N         -6.584425   0.805615   1.410925 N.3        1 UNL1     -0.3018
     21 C         -6.396617   1.686463   0.25628 C.3        1 UNL1     0.0026
     22 C         -4.949105   2.180632   0.276267 C.3        1 UNL1     0.0016
     23 C         -7.809292   0.030827   1.40399 C.3        1 UNL1     0.0012
     24 C         -9.025365   0.94377   1.626381 C.3        1 UNL1     -0.0339
     25 C         -9.130812   2.016947   0.530376 C.3        1 UNL1     -0.0615
     26 C         -10.292206   0.110886   1.716929 C.3        1 UNL1     -0.0615
     27 C         -2.756649   7.797617   4.470602 C.ar        1 UNL1     0.1347
     28 C         -1.37794   7.829302   4.360114 C.ar        1 UNL1     0.0342
     29 C         -0.83674   6.843325   3.50799 C.ar        1 UNL1     0.1435
     30 C         -1.621249   5.883403   2.867429 C.ar        1 UNL1     0.0774
     31 O         0.49784   6.674363   3.384075 O.3        1 UNL1     -0.4436
     32 C         0.647942   5.348211   2.855244 C.3        1 UNL1     0.3143
     33 C         -0.669412   5.042962   2.171419 C.2        1 UNL1     0.2504
     34 C         -0.447486   8.683563   5.175339 C.3        1 UNL1     -0.0327
     35 O         1.646301   5.409255   1.829182 O.2        1 UNL1     -0.4528
     36 C         3.32466   2.004746   1.806401 C.3        1 UNL1     0.0854
     37 C         2.682305   0.578606   1.603843 C.3        1 UNL1     0.0236
     38 C         3.327387   -0.291408   0.421182 C.3        1 UNL1     0.1131
     39 C         3.494968   0.34251   -1.018378 C.3        1 UNL1     0.0200
     40 C         2.264845   1.245197   -1.692466 C.3        1 UNL1     0.0661
     41 C         0.63565   0.784047   -1.795778 C.3        1 UNL1     0.0091
     42 C         -0.893241   1.796633   -1.745149 C.3        1 UNL1     0.0661
     43 C         -5.008341   6.758966   4.126016 C.2        1 UNL1     0.2131
     44 O         -5.547249   7.2938   5.077998 O.2        1 UNL1     -0.2851
     45 O         -3.401465   8.782521   5.215997 O.3        1 UNL1     -0.5056
     46 O         -0.881682   4.29193   1.245813 O.2        1 UNL1     -0.2836
     47 C         -1.335076   3.970195   -3.22779 C.3        1 UNL1     -0.0566
     48 O         -1.503736   1.139539   -2.926098 O.3        1 UNL1     -0.3909
     49 C         0.406953   -0.405887   -0.890654 C.3        1 UNL1     -0.0577
     50 O         2.359756   2.598014   -1.29422 O.3        1 UNL1     -0.3910
     51 O         4.254968   2.406236   0.826214 O.3        1 UNL1     -0.3753
     52 C         1.144203   0.587998   1.885094 C.3        1 UNL1     -0.0564
     53 O         2.954367   -1.744195   0.472096 O.3        1 UNL1     -0.4608
     54 C         3.770532   -2.78745   0.120778 C.2        1 UNL1     0.3042
     55 O         3.866231   -3.321811   -0.983368 O.2        1 UNL1     -0.2512
     56 C         4.665122   -3.252561   1.234372 C.3        1 UNL1     0.0332
     57 C         4.984019   0.917116   -1.121962 C.3        1 UNL1     -0.0567
     58 C         0.808034   4.407535   4.07222 C.3        1 UNL1     0.0210
     59 C         5.623329   2.240627   1.19503 C.3        1 UNL1     0.0372
     60 C         2.348792   3.11879   1.953868 C.2        1 UNL1     -0.0208
     61 C         2.331949   4.332163   1.400525 C.2        1 UNL1     0.0882
     62 H         -1.218356   3.827414   -1.094645 H        1 UNL1     0.0365
     63 H         -2.751718   5.035794   -0.495606 H        1 UNL1     0.0576
     64 H         -5.356473   4.354254   -1.994782 H        1 UNL1     0.0615
     65 H         -4.691705   6.349791   0.314714 H        1 UNL1     0.0622
     66 H         3.85129   1.93612   2.768689 H        1 UNL1     0.0645
     67 H         3.003656   0.010903   2.494353 H        1 UNL1     0.0362
     68 H         4.350383   -0.402916   0.811779 H        1 UNL1     0.0741
     69 H         3.624722   -0.455576   -1.737148 H        1 UNL1     0.0359
     70 H         2.586715   1.245374   -2.751456 H        1 UNL1     0.0600
     71 H         0.634156   0.301707   -2.792926 H        1 UNL1     0.0348
     72 H         -0.078126   2.490552   -1.996899 H        1 UNL1     0.0602
     73 H         1.65021   2.872751   2.714589 H        1 UNL1     0.0628
     74 H         2.974691   4.642956   0.576191 H        1 UNL1     0.1022
     75 H         -8.554616   5.076606   -0.308418 H        1 UNL1     0.0279
     76 H         -8.941794   6.329622   0.802143 H        1 UNL1     0.0279
     77 H         -8.62047   6.666973   -0.94664 H        1 UNL1     0.0279
     78 H         -7.504866   5.395241   2.48444 H        1 UNL1     0.1553
     79 H         -6.686273   3.792337   1.655689 H        1 UNL1     0.1484
     80 H         -4.158028   1.102932   2.558225 H        1 UNL1     0.0317
     81 H         -4.63395   2.373469   3.675883 H        1 UNL1     0.0317
     82 H         -7.022997   2.218253   2.926172 H        1 UNL1     0.0428
     83 H         -6.399562   0.694339   3.518385 H        1 UNL1     0.0428
     84 H         -6.534489   1.183666   -0.706007 H        1 UNL1     0.0428
     85 H         -7.133591   2.501268   0.239573 H        1 UNL1     0.0428
     86 H         -4.811241   2.71046   -0.647997 H        1 UNL1     0.0317
     87 H         -4.2617   1.330623   0.186512 H        1 UNL1     0.0317
     88 H         -7.905913   -0.446506   0.420064 H        1 UNL1     0.0429
     89 H         -7.77645   -0.77371   2.149922 H        1 UNL1     0.0429
     90 H         -8.926012   1.444346   2.596827 H        1 UNL1     0.0308
     91 H         -8.188013   2.12282   -0.014623 H        1 UNL1     0.0233
     92 H         -9.927514   1.771095   -0.175621 H        1 UNL1     0.0233
     93 H         -9.37636   3.005752   0.936338 H        1 UNL1     0.0233
     94 H         -10.61488   -0.195876   0.716122 H        1 UNL1     0.0233
     95 H         -10.10378   -0.793418   2.302328 H        1 UNL1     0.0233
     96 H         -11.105781   0.671627   2.185581 H        1 UNL1     0.0233
     97 H         -0.830821   8.863962   6.175209 H        1 UNL1     0.0280
     98 H         0.534986   8.212692   5.310566 H        1 UNL1     0.0280
     99 H         -0.308948   9.657237   4.67748 H        1 UNL1     0.0280
     100 H         -4.292342   8.946309   4.960781 H        1 UNL1     0.2922
     101 H         -0.408361   4.519247   -3.062268 H        1 UNL1     0.0236
     102 H         -2.076444   4.568929   -3.755875 H        1 UNL1     0.0236
     103 H         -1.063536   3.170035   -3.936453 H        1 UNL1     0.0236
     104 H         -1.18437   1.607831   -3.722137 H        1 UNL1     0.2098
     105 H         -0.300454   -1.135058   -1.27756 H        1 UNL1     0.0234
     106 H         1.316388   -0.90351   -0.554162 H        1 UNL1     0.0234
     107 H         0.0   0.0   0.0 H        1 UNL1     0.0234
     108 H         2.945082   3.048193   -1.933361 H        1 UNL1     0.2098
     109 H         0.755558   -0.415964   2.105841 H        1 UNL1     0.0234
     110 H         0.857566   1.276442   2.687358 H        1 UNL1     0.0234
     111 H         0.575776   0.942034   1.014752 H        1 UNL1     0.0234
     112 H         4.061043   -3.558205   2.094032 H        1 UNL1     0.0342
     113 H         5.329048   -4.055673   0.918053 H        1 UNL1     0.0342
     114 H         5.291995   -2.406169   1.547128 H        1 UNL1     0.0342
     115 H         5.390075   0.818465   -2.138118 H        1 UNL1     0.0234
     116 H         5.076463   1.965588   -0.831771 H        1 UNL1     0.0234
     117 H         5.720981   0.336623   -0.540707 H        1 UNL1     0.0234
     118 H         -0.166834   4.089941   4.48182 H        1 UNL1     0.0309
     119 H         1.410631   3.520358   3.853138 H        1 UNL1     0.0309
     120 H         1.291293   4.899753   4.923271 H        1 UNL1     0.0309
     121 H         6.167489   1.919336   0.307326 H        1 UNL1     0.0524
     122 H         6.080152   3.182546   1.541639 H        1 UNL1     0.0524
     123 H         5.713417   1.495251   1.980137 H        1 UNL1     0.0524
@<TRIPOS>BOND
     1     1     2    1
     2     1    42    1
     3     2     3    2
     4     3     4    1
     5     4     5    2
     6     5     7    1
     7     6    75    1
     8     6    76    1
     9     6    77    1
    10     7     9   am
    11     9    10    1
    12    10    11    2
    13    10    43    1
    14    11    14    1
    15    11    15    1
    16    12    13   ar
    17    12    27   ar
    18    12    43    1
    19    13    14    1
    20    13    30   ar
    21    14    17    2
    22    15    16    1
    23    16    17    1
    24    16    18    1
    25    16    22    1
    26    18    19    1
    27    19    20    1
    28    20    21    1
    29    21    22    1
    30    23    24    1
    31    23    88    1
    32    23    89    1
    33    24    25    1
    34    24    26    1
    35    24    90    1
    36    25    91    1
    37    25    92    1
    38    25    93    1
    39    26    94    1
    40    26    95    1
    41    26    96    1
    42    27    28   ar
    43    28    29   ar
    44    29    30   ar
    45    29    31    1
    46    30    33    1
    47    31    32    1
    48    32    33    1
    49    32    35    1
    50    34    97    1
    51    34    98    1
    52    34    99    1
    53    35    61    1
    54    36    37    1
    55    36    60    1
    56    37    38    1
    57    38    39    1
    58    39    40    1
    59    40    41    1
    60    41    42    1
    61    45   100    1
    62    47   101    1
    63    47   102    1
    64    47   103    1
    65    48   104    1
    66    49   105    1
    67    49   106    1
    68    49   107    1
    69    50   108    1
    70    51    59    1
    71    52   109    1
    72    52   110    1
    73    52   111    1
    74    53    54    1
    75    54    55    2
    76    54    56    1
    77    56   112    1
    78    56   113    1
    79    56   114    1
    80    57   115    1
    81    57   116    1
    82    57   117    1
    83    58   118    1
    84    58   119    1
    85    58   120    1
    86    59   121    1
    87    59   122    1
    88    59   123    1
    89    60    61    2
    90     1    47    1
    91     1    62    1
    92     2    63    1
    93     3    64    1
    94     4    65    1
    95     5     6    1
    96     7     8    2
    97     9    78    1
    98    15    79    1
    99    18    80    1
   100    18    81    1
   101    19    82    1
   102    19    83    1
   103    20    23    1
   104    21    84    1
   105    21    85    1
   106    22    86    1
   107    22    87    1
   108    27    45    1
   109    28    34    1
   110    32    58    1
   111    33    46    2
   112    36    51    1
   113    36    66    1
   114    37    52    1
   115    37    67    1
   116    38    53    1
   117    38    68    1
   118    42    48    1
   119    42    72    1
   120    43    44    2
   121    60    73    1
   122    61    74    1
   123    39    69    1
   124    39    57    1
   125    40    70    1
   126    40    50    1
   127    41    71    1
   128    41    49    1
