@<TRIPOS>MOLECULE
*****
 123 128 0 0 0
SMALL
GASTEIGER

@<TRIPOS>ATOM
     1 C         3.200996   -1.180297   4.163849 C.3        1 UNL1     0.0009
     2 C         3.195442   -1.905317   5.870118 C.2        1 UNL1     -0.0787
     3 C         3.335749   -1.74746   7.302403 C.2        1 UNL1     -0.0649
     4 C         3.073165   -2.906999   8.507755 C.2        1 UNL1     -0.0542
     5 C         2.811458   -3.111271   9.885021 C.2        1 UNL1     0.0115
     6 C         2.744753   -2.408987   11.269099 C.3        1 UNL1     -0.0348
     7 C         2.232199   -4.529845   10.363663 C.2        1 UNL1     0.2441
     8 O         2.925043   -5.386263   10.895678 O.2        1 UNL1     -0.2702
     9 N         0.829448   -4.621517   10.369684 N.am        1 UNL1     -0.2772
     10 C         0.369817   -5.032807   9.139683 C.2        1 UNL1     0.1049
     11 C         0.238977   -4.091421   8.222679 C.2        1 UNL1     0.0801
     12 C         0.721201   -6.76353   7.368113 C.ar        1 UNL1     0.0753
     13 C         0.780388   -5.681519   6.433042 C.ar        1 UNL1     0.0305
     14 C         0.409638   -4.320318   6.813475 C.2        1 UNL1     0.0924
     15 N         0.280975   -2.75367   8.345919 N.pl3        1 UNL1     -0.3170
     16 C         -0.09026   -2.183729   7.078006 C.3        1 UNL1     0.1275
     17 N         0.310041   -3.226648   6.063214 N.2        1 UNL1     -0.2557
     18 C         -1.614097   -2.118978   7.040161 C.3        1 UNL1     0.0016
     19 C         -2.09757   -1.332043   8.247876 C.3        1 UNL1     0.0026
     20 N         -1.515122   0.001957   8.200692 N.3        1 UNL1     -0.3018
     21 C         -0.051564   0.040654   8.171207 C.3        1 UNL1     0.0026
     22 C         0.412142   -0.751882   6.947787 C.3        1 UNL1     0.0016
     23 C         -2.138762   0.922792   9.130089 C.3        1 UNL1     0.0012
     24 C         -3.247317   0.216301   9.926164 C.3        1 UNL1     -0.0339
     25 C         -2.964908   0.252439   11.437122 C.3        1 UNL1     -0.0615
     26 C         -4.597252   0.828498   9.594999 C.3        1 UNL1     -0.0615
     27 C         0.959133   -8.076511   6.96863 C.ar        1 UNL1     0.1347
     28 C         1.22536   -8.43407   5.658925 C.ar        1 UNL1     0.0342
     29 C         1.326909   -7.346961   4.765032 C.ar        1 UNL1     0.1435
     30 C         1.126774   -6.02303   5.157934 C.ar        1 UNL1     0.0774
     31 O         1.472529   -7.538815   3.435749 O.3        1 UNL1     -0.4436
     32 C         1.066055   -6.295982   2.843282 C.3        1 UNL1     0.3143
     33 C         1.24734   -5.259357   3.933583 C.2        1 UNL1     0.2504
     34 C         1.241787   -9.834832   5.113311 C.3        1 UNL1     -0.0327
     35 O         2.011435   -5.986407   1.811938 O.2        1 UNL1     -0.4528
     36 C         0.090986   -4.015804   -0.802769 C.3        1 UNL1     0.0854
     37 C         -0.722175   -2.67415   -0.640729 C.3        1 UNL1     0.0236
     38 C         -0.281176   -1.492712   -1.63142 C.3        1 UNL1     0.1131
     39 C         1.244676   -1.091033   -1.744107 C.3        1 UNL1     0.0200
     40 C         2.185923   -0.954865   -0.373724 C.3        1 UNL1     0.0661
     41 C         1.78585   -0.080305   1.023665 C.3        1 UNL1     0.0091
     42 C         2.202824   -0.39203   2.782745 C.3        1 UNL1     0.0661
     43 C         0.310058   -6.452072   8.759593 C.2        1 UNL1     0.2131
     44 O         -0.150964   -7.278291   9.526116 O.2        1 UNL1     -0.2851
     45 O         0.927003   -9.065233   7.949871 O.3        1 UNL1     -0.5056
     46 O         1.464651   -4.073948   3.81767 O.2        1 UNL1     -0.2836
     47 C         4.65579   -0.89178   3.705252 C.3        1 UNL1     -0.0566
     48 O         2.629129   1.003449   3.047356 O.3        1 UNL1     -0.3909
     49 C         0.315939   0.27245   0.97446 C.3        1 UNL1     -0.0577
     50 O         2.738356   -2.206484   -0.018772 O.3        1 UNL1     -0.3910
     51 O         1.206498   -3.960012   -1.662973 O.3        1 UNL1     -0.3753
     52 C         -1.112826   -2.406944   0.849553 C.3        1 UNL1     -0.0564
     53 O         -1.274782   -0.370542   -1.707636 O.3        1 UNL1     -0.4608
     54 C         -1.579965   0.491915   -0.687362 C.2        1 UNL1     0.3042
     55 O         -2.658822   1.043213   -0.472942 O.2        1 UNL1     -0.2512
     56 C         -0.44827   0.707379   0.276773 C.3        1 UNL1     0.0332
     57 C         1.858849   -1.875768   -2.99517 C.3        1 UNL1     -0.0567
     58 C         -0.44233   -6.432947   2.530957 C.3        1 UNL1     0.0210
     59 C         1.118953   -4.799651   -2.813281 C.3        1 UNL1     0.0372
     60 C         0.561657   -4.62369   0.471635 C.2        1 UNL1     -0.0208
     61 C         1.746577   -5.142864   0.795929 C.2        1 UNL1     0.0882
     62 H         2.936842   -2.166936   3.764504 H        1 UNL1     0.0365
     63 H         3.053615   -2.963591   5.641185 H        1 UNL1     0.0576
     64 H         3.476462   -0.765188   7.758966 H        1 UNL1     0.0615
     65 H         3.026298   -3.850026   7.956405 H        1 UNL1     0.0622
     66 H         -0.631658   -4.727025   -1.227029 H        1 UNL1     0.0645
     67 H         -1.726414   -2.921019   -1.026889 H        1 UNL1     0.0362
     68 H         -0.532293   -1.958579   -2.596526 H        1 UNL1     0.0741
     69 H         1.313173   -0.102376   -2.178013 H        1 UNL1     0.0359
     70 H         3.039386   -0.382365   -0.784705 H        1 UNL1     0.0600
     71 H         2.251364   0.895105   0.781118 H        1 UNL1     0.0348
     72 H         2.927098   -0.971588   2.192106 H        1 UNL1     0.0602
     73 H         -0.260252   -4.721009   1.136649 H        1 UNL1     0.0628
     74 H         2.651549   -5.03567   0.196953 H        1 UNL1     0.1022
     75 H         2.24703   -3.06892   12.019961 H        1 UNL1     0.0279
     76 H         3.696363   -2.186827   11.746751 H        1 UNL1     0.0279
     77 H         2.076178   -1.535657   11.271065 H        1 UNL1     0.0279
     78 H         0.427585   -3.705094   10.556105 H        1 UNL1     0.1553
     79 H         0.156821   -2.270374   9.216519 H        1 UNL1     0.1484
     80 H         -1.928662   -1.646167   6.101937 H        1 UNL1     0.0317
     81 H         -2.048717   -3.124327   7.045629 H        1 UNL1     0.0317
     82 H         -1.847974   -1.839787   9.191173 H        1 UNL1     0.0428
     83 H         -3.186566   -1.299664   8.202163 H        1 UNL1     0.0428
     84 H         0.358322   1.048818   8.05541 H        1 UNL1     0.0428
     85 H         0.385911   -0.318678   9.112915 H        1 UNL1     0.0428
     86 H         1.472348   -0.591198   6.883512 H        1 UNL1     0.0317
     87 H         0.028803   -0.285637   6.031947 H        1 UNL1     0.0317
     88 H         -1.370846   1.270576   9.8334 H        1 UNL1     0.0429
     89 H         -2.526567   1.809834   8.612848 H        1 UNL1     0.0429
     90 H         -3.306985   -0.830986   9.607037 H        1 UNL1     0.0308
     91 H         -1.91773   0.495829   11.640303 H        1 UNL1     0.0233
     92 H         -3.606079   0.985299   11.932525 H        1 UNL1     0.0233
     93 H         -3.16798   -0.709571   11.92306 H        1 UNL1     0.0233
     94 H         -4.72174   1.778354   10.126142 H        1 UNL1     0.0233
     95 H         -4.662639   1.031004   8.522302 H        1 UNL1     0.0233
     96 H         -5.41755   0.16349   9.879328 H        1 UNL1     0.0233
     97 H         0.990808   -9.863699   4.057183 H        1 UNL1     0.0280
     98 H         2.231959   -10.301034   5.199755 H        1 UNL1     0.0280
     99 H         0.509874   -10.45221   5.659427 H        1 UNL1     0.0280
     100 H         1.746136   -9.507886   8.086625 H        1 UNL1     0.2922
     101 H         5.318168   -0.87805   4.57054 H        1 UNL1     0.0236
     102 H         4.74499   0.014697   3.107484 H        1 UNL1     0.0236
     103 H         5.053618   -1.693543   3.060967 H        1 UNL1     0.0236
     104 H         3.084098   1.329772   2.246427 H        1 UNL1     0.2098
     105 H         -0.300094   -0.26949   1.687634 H        1 UNL1     0.0234
     106 H         0.101888   1.339954   1.024912 H        1 UNL1     0.0234
     107 H         0.0   0.0   0.0 H        1 UNL1     0.0234
     108 H         2.037997   -2.876757   -0.137091 H        1 UNL1     0.2098
     109 H         -2.029701   -1.807616   0.938201 H        1 UNL1     0.0234
     110 H         -1.216563   -3.32463   1.43848 H        1 UNL1     0.0234
     111 H         -0.334435   -1.839085   1.376421 H        1 UNL1     0.0234
     112 H         -0.177346   -0.241018   0.750575 H        1 UNL1     0.0342
     113 H         0.415771   1.16591   -0.201793 H        1 UNL1     0.0342
     114 H         -0.79409   1.39072   1.064566 H        1 UNL1     0.0342
     115 H         1.326143   -1.639949   -3.926729 H        1 UNL1     0.0234
     116 H         2.919477   -1.679996   -3.164844 H        1 UNL1     0.0234
     117 H         1.718822   -2.969088   -2.940532 H        1 UNL1     0.0234
     118 H         -0.960601   -7.076427   3.263306 H        1 UNL1     0.0309
     119 H         -0.95823   -5.469283   2.472645 H        1 UNL1     0.0309
     120 H         -0.629882   -6.93559   1.575823 H        1 UNL1     0.0309
     121 H         1.506146   -5.779803   -2.53626 H        1 UNL1     0.0524
     122 H         0.07877   -4.937383   -3.152525 H        1 UNL1     0.0524
     123 H         1.703363   -4.382476   -3.628465 H        1 UNL1     0.0524
@<TRIPOS>BOND
     1     1     2    1
     2     1    42    1
     3     2     3    2
     4     3     4    1
     5     4     5    2
     6     5     7    1
     7     6    75    1
     8     6    76    1
     9     6    77    1
    10     7     9   am
    11     9    10    1
    12    10    11    2
    13    10    43    1
    14    11    14    1
    15    11    15    1
    16    12    13   ar
    17    12    27   ar
    18    12    43    1
    19    13    14    1
    20    13    30   ar
    21    14    17    2
    22    15    16    1
    23    16    17    1
    24    16    18    1
    25    16    22    1
    26    18    19    1
    27    19    20    1
    28    20    21    1
    29    21    22    1
    30    23    24    1
    31    23    88    1
    32    23    89    1
    33    24    25    1
    34    24    26    1
    35    24    90    1
    36    25    91    1
    37    25    92    1
    38    25    93    1
    39    26    94    1
    40    26    95    1
    41    26    96    1
    42    27    28   ar
    43    28    29   ar
    44    29    30   ar
    45    29    31    1
    46    30    33    1
    47    31    32    1
    48    32    33    1
    49    32    35    1
    50    34    97    1
    51    34    98    1
    52    34    99    1
    53    35    61    1
    54    36    37    1
    55    36    60    1
    56    37    38    1
    57    38    39    1
    58    39    40    1
    59    40    41    1
    60    41    42    1
    61    45   100    1
    62    47   101    1
    63    47   102    1
    64    47   103    1
    65    48   104    1
    66    49   105    1
    67    49   106    1
    68    49   107    1
    69    50   108    1
    70    51    59    1
    71    52   109    1
    72    52   110    1
    73    52   111    1
    74    53    54    1
    75    54    55    2
    76    54    56    1
    77    56   112    1
    78    56   113    1
    79    56   114    1
    80    57   115    1
    81    57   116    1
    82    57   117    1
    83    58   118    1
    84    58   119    1
    85    58   120    1
    86    59   121    1
    87    59   122    1
    88    59   123    1
    89    60    61    2
    90     1    47    1
    91     1    62    1
    92     2    63    1
    93     3    64    1
    94     4    65    1
    95     5     6    1
    96     7     8    2
    97     9    78    1
    98    15    79    1
    99    18    80    1
   100    18    81    1
   101    19    82    1
   102    19    83    1
   103    20    23    1
   104    21    84    1
   105    21    85    1
   106    22    86    1
   107    22    87    1
   108    27    45    1
   109    28    34    1
   110    32    58    1
   111    33    46    2
   112    36    51    1
   113    36    66    1
   114    37    52    1
   115    37    67    1
   116    38    53    1
   117    38    68    1
   118    42    48    1
   119    42    72    1
   120    43    44    2
   121    60    73    1
   122    61    74    1
   123    39    69    1
   124    39    57    1
   125    40    70    1
   126    40    50    1
   127    41    71    1
   128    41    49    1
