@<TRIPOS>MOLECULE
*****
 123 128 0 0 0
SMALL
GASTEIGER

@<TRIPOS>ATOM
     1 C         1.462881   2.762215   4.497713 C.3        1 UNL1     0.0009
     2 C         1.886765   4.419076   5.213374 C.2        1 UNL1     -0.0787
     3 C         2.87398   5.376393   5.66614 C.2        1 UNL1     -0.0649
     4 C         2.620228   6.971054   6.175086 C.2        1 UNL1     -0.0542
     5 C         3.228085   8.233359   6.385262 C.2        1 UNL1     0.0115
     6 C         4.590186   8.978102   6.443248 C.3        1 UNL1     -0.0348
     7 C         2.29511   9.533729   6.510102 C.2        1 UNL1     0.2441
     8 O         2.026913   10.059915   7.581421 O.2        1 UNL1     -0.2702
     9 N         2.020691   10.180806   5.292671 N.am        1 UNL1     -0.2772
     10 C         0.903829   9.636987   4.700892 C.2        1 UNL1     0.1049
     11 C         1.095728   8.536027   3.997128 C.2        1 UNL1     0.0801
     12 C         -1.462996   8.973729   5.165178 C.ar        1 UNL1     0.0753
     13 C         -1.141981   7.709765   4.575304 C.ar        1 UNL1     0.0305
     14 C         0.110948   7.498212   3.85387 C.2        1 UNL1     0.0924
     15 N         2.239275   7.963492   3.583569 N.pl3        1 UNL1     -0.3170
     16 C         1.89427   6.877194   2.705398 C.3        1 UNL1     0.1275
     17 N         0.526564   6.437406   3.167663 N.2        1 UNL1     -0.2557
     18 C         1.700935   7.466541   1.311485 C.3        1 UNL1     0.0016
     19 C         2.965973   8.21324   0.919427 C.3        1 UNL1     0.0026
     20 N         4.085432   7.281983   0.943911 N.3        1 UNL1     -0.3018
     21 C         4.312782   6.616757   2.228494 C.3        1 UNL1     0.0026
     22 C         3.031175   5.869207   2.600715 C.3        1 UNL1     0.0016
     23 C         5.273164   7.810984   0.303525 C.3        1 UNL1     0.0012
     24 C         5.072216   7.896346   -1.217688 C.3        1 UNL1     -0.0339
     25 C         4.620371   9.301822   -1.647258 C.3        1 UNL1     -0.0615
     26 C         6.342372   7.473829   -1.935297 C.3        1 UNL1     -0.0615
     27 C         -2.708129   9.203974   5.745479 C.ar        1 UNL1     0.1347
     28 C         -3.722952   8.263789   5.760816 C.ar        1 UNL1     0.0342
     29 C         -3.367509   7.010735   5.217971 C.ar        1 UNL1     0.1435
     30 C         -2.112   6.75404   4.665681 C.ar        1 UNL1     0.0774
     31 O         -4.279527   6.026659   5.060416 O.3        1 UNL1     -0.4436
     32 C         -3.697341   5.144836   4.088654 C.3        1 UNL1     0.3143
     33 C         -2.205325   5.397393   4.168123 C.2        1 UNL1     0.2504
     34 C         -5.156146   8.519451   6.135907 C.3        1 UNL1     -0.0327
     35 O         -3.918338   3.804143   4.543577 O.2        1 UNL1     -0.4528
     36 C         -4.165418   1.670661   1.413834 C.3        1 UNL1     0.0854
     37 C         -3.120937   1.490433   0.245887 C.3        1 UNL1     0.0236
     38 C         -2.697633   -0.026994   -0.054068 C.3        1 UNL1     0.1131
     39 C         -2.221049   -0.958339   1.132412 C.3        1 UNL1     0.0200
     40 C         -1.170418   -0.379229   2.291397 C.3        1 UNL1     0.0661
     41 C         0.287943   0.434257   1.993015 C.3        1 UNL1     0.0091
     42 C         1.133622   1.750886   2.950469 C.3        1 UNL1     0.0661
     43 C         -0.458032   10.060495   5.059121 C.2        1 UNL1     0.2131
     44 O         -0.733087   11.243024   5.152442 O.2        1 UNL1     -0.2851
     45 O         -2.923808   10.446419   6.338143 O.3        1 UNL1     -0.5056
     46 O         -1.297877   4.641379   3.901972 O.2        1 UNL1     -0.2836
     47 C         1.63587   1.651906   5.56882 C.3        1 UNL1     -0.0566
     48 O         2.462297   1.094467   2.897049 O.3        1 UNL1     -0.3909
     49 C         0.325111   0.852273   0.539957 C.3        1 UNL1     -0.0577
     50 O         -1.877741   0.263263   3.332849 O.3        1 UNL1     -0.3910
     51 O         -4.463111   0.51119   2.158439 O.3        1 UNL1     -0.3753
     52 C         -2.090193   2.665368   0.200672 C.3        1 UNL1     -0.0564
     53 O         -1.994163   -0.205788   -1.367647 O.3        1 UNL1     -0.4608
     54 C         -1.195223   -1.267234   -1.703739 C.2        1 UNL1     0.3042
     55 O         0.022053   -1.258597   -1.882634 O.2        1 UNL1     -0.2512
     56 C         -1.935136   -2.571349   -1.796079 C.3        1 UNL1     0.0332
     57 C         -3.490691   -1.794925   1.628707 C.3        1 UNL1     -0.0567
     58 C         -4.210187   5.615825   2.707825 C.3        1 UNL1     0.0210
     59 C         -5.769896   0.485448   2.73073 C.3        1 UNL1     0.0372
     60 C         -3.832282   2.737924   2.396244 C.2        1 UNL1     -0.0208
     61 C         -3.882054   2.732167   3.728999 C.2        1 UNL1     0.0882
     62 H         0.404279   3.048357   4.511736 H        1 UNL1     0.0365
     63 H         0.889072   4.817933   5.408287 H        1 UNL1     0.0576
     64 H         3.944665   5.188686   5.558869 H        1 UNL1     0.0615
     65 H         1.538842   7.027343   6.326474 H        1 UNL1     0.0622
     66 H         -5.086371   1.99968   0.912198 H        1 UNL1     0.0645
     67 H         -3.690972   1.74341   -0.66495 H        1 UNL1     0.0362
     68 H         -3.671932   -0.430967   -0.368818 H        1 UNL1     0.0741
     69 H         -1.678714   -1.798313   0.719225 H        1 UNL1     0.0359
     70 H         -0.831244   -1.334533   2.73571 H        1 UNL1     0.0600
     71 H         0.99011   -0.42243   1.990426 H        1 UNL1     0.0348
     72 H         0.431218   1.272157   3.648153 H        1 UNL1     0.0602
     73 H         -3.639365   3.643317   1.876346 H        1 UNL1     0.0628
     74 H         -4.016195   1.836999   4.337207 H        1 UNL1     0.1022
     75 H         5.431717   8.272452   6.240972 H        1 UNL1     0.0279
     76 H         4.750927   9.754083   5.698208 H        1 UNL1     0.0279
     77 H         4.840149   9.32922   7.455145 H        1 UNL1     0.0279
     78 H         2.801043   10.050065   4.652331 H        1 UNL1     0.1553
     79 H         3.117122   8.446835   3.53163 H        1 UNL1     0.1484
     80 H         1.480475   6.654936   0.607594 H        1 UNL1     0.0317
     81 H         0.840235   8.143544   1.288819 H        1 UNL1     0.0317
     82 H         3.152108   9.073358   1.579324 H        1 UNL1     0.0428
     83 H         2.805784   8.626895   -0.076706 H        1 UNL1     0.0428
     84 H         5.107325   5.864686   2.198432 H        1 UNL1     0.0428
     85 H         4.643595   7.323591   3.00197 H        1 UNL1     0.0428
     86 H         3.276279   5.290215   3.471737 H        1 UNL1     0.0317
     87 H         2.808582   5.107198   1.843819 H        1 UNL1     0.0317
     88 H         5.447535   8.823521   0.69038 H        1 UNL1     0.0429
     89 H         6.160006   7.214258   0.552931 H        1 UNL1     0.0429
     90 H         4.303589   7.175002   -1.519498 H        1 UNL1     0.0308
     91 H         5.341689   10.063694   -1.336847 H        1 UNL1     0.0233
     92 H         4.490328   9.351409   -2.730881 H        1 UNL1     0.0233
     93 H         3.654187   9.581655   -1.210204 H        1 UNL1     0.0233
     94 H         6.270613   7.712139   -3.002019 H        1 UNL1     0.0233
     95 H         7.200277   8.014623   -1.526025 H        1 UNL1     0.0233
     96 H         6.520382   6.39973   -1.832382 H        1 UNL1     0.0233
     97 H         -5.769496   7.629363   6.0321 H        1 UNL1     0.0280
     98 H         -5.260028   8.835675   7.182075 H        1 UNL1     0.0280
     99 H         -5.57364   9.304689   5.484605 H        1 UNL1     0.0280
     100 H         -3.685662   10.90218   6.025919 H        1 UNL1     0.2922
     101 H         1.343633   0.6889   5.150642 H        1 UNL1     0.0236
     102 H         1.113128   1.869146   6.499696 H        1 UNL1     0.0236
     103 H         2.690655   1.520848   5.862836 H        1 UNL1     0.0236
     104 H         2.564874   0.569215   3.714704 H        1 UNL1     0.2098
     105 H         -0.339396   1.676308   0.292556 H        1 UNL1     0.0234
     106 H         1.323608   1.040733   0.145734 H        1 UNL1     0.0234
     107 H         0.0   0.0   -0.0 H        1 UNL1     0.0234
     108 H         -2.317591   1.044603   2.945799 H        1 UNL1     0.2098
     109 H         -1.518467   2.753353   1.135069 H        1 UNL1     0.0234
     110 H         -1.39936   2.599484   -0.646767 H        1 UNL1     0.0234
     111 H         -2.587415   3.634927   0.064027 H        1 UNL1     0.0234
     112 H         -1.241416   -3.374838   -2.061604 H        1 UNL1     0.0342
     113 H         -2.469891   -2.804807   -0.876634 H        1 UNL1     0.0342
     114 H         -2.678052   -2.48805   -2.601251 H        1 UNL1     0.0342
     115 H         -3.904266   -2.423188   0.827814 H        1 UNL1     0.0234
     116 H         -3.288521   -2.443413   2.483481 H        1 UNL1     0.0234
     117 H         -4.362403   -1.16548   1.87742 H        1 UNL1     0.0234
     118 H         -5.213296   5.215092   2.47937 H        1 UNL1     0.0309
     119 H         -4.227839   6.705455   2.604884 H        1 UNL1     0.0309
     120 H         -3.595104   5.243101   1.881474 H        1 UNL1     0.0309
     121 H         -5.841714   1.321129   3.426314 H        1 UNL1     0.0524
     122 H         -6.560914   0.614979   1.973399 H        1 UNL1     0.0524
     123 H         -5.93274   -0.452643   3.253759 H        1 UNL1     0.0524
@<TRIPOS>BOND
     1     1     2    1
     2     1    42    1
     3     2     3    2
     4     3     4    1
     5     4     5    2
     6     5     7    1
     7     6    75    1
     8     6    76    1
     9     6    77    1
    10     7     9   am
    11     9    10    1
    12    10    11    2
    13    10    43    1
    14    11    14    1
    15    11    15    1
    16    12    13   ar
    17    12    27   ar
    18    12    43    1
    19    13    14    1
    20    13    30   ar
    21    14    17    2
    22    15    16    1
    23    16    17    1
    24    16    18    1
    25    16    22    1
    26    18    19    1
    27    19    20    1
    28    20    21    1
    29    21    22    1
    30    23    24    1
    31    23    88    1
    32    23    89    1
    33    24    25    1
    34    24    26    1
    35    24    90    1
    36    25    91    1
    37    25    92    1
    38    25    93    1
    39    26    94    1
    40    26    95    1
    41    26    96    1
    42    27    28   ar
    43    28    29   ar
    44    29    30   ar
    45    29    31    1
    46    30    33    1
    47    31    32    1
    48    32    33    1
    49    32    35    1
    50    34    97    1
    51    34    98    1
    52    34    99    1
    53    35    61    1
    54    36    37    1
    55    36    60    1
    56    37    38    1
    57    38    39    1
    58    39    40    1
    59    40    41    1
    60    41    42    1
    61    45   100    1
    62    47   101    1
    63    47   102    1
    64    47   103    1
    65    48   104    1
    66    49   105    1
    67    49   106    1
    68    49   107    1
    69    50   108    1
    70    51    59    1
    71    52   109    1
    72    52   110    1
    73    52   111    1
    74    53    54    1
    75    54    55    2
    76    54    56    1
    77    56   112    1
    78    56   113    1
    79    56   114    1
    80    57   115    1
    81    57   116    1
    82    57   117    1
    83    58   118    1
    84    58   119    1
    85    58   120    1
    86    59   121    1
    87    59   122    1
    88    59   123    1
    89    60    61    2
    90     1    47    1
    91     1    62    1
    92     2    63    1
    93     3    64    1
    94     4    65    1
    95     5     6    1
    96     7     8    2
    97     9    78    1
    98    15    79    1
    99    18    80    1
   100    18    81    1
   101    19    82    1
   102    19    83    1
   103    20    23    1
   104    21    84    1
   105    21    85    1
   106    22    86    1
   107    22    87    1
   108    27    45    1
   109    28    34    1
   110    32    58    1
   111    33    46    2
   112    36    51    1
   113    36    66    1
   114    37    52    1
   115    37    67    1
   116    38    53    1
   117    38    68    1
   118    42    48    1
   119    42    72    1
   120    43    44    2
   121    60    73    1
   122    61    74    1
   123    39    69    1
   124    39    57    1
   125    40    70    1
   126    40    50    1
   127    41    71    1
   128    41    49    1
