@<TRIPOS>MOLECULE
*****
 123 128 0 0 0
SMALL
GASTEIGER

@<TRIPOS>ATOM
     1 C         2.757013   3.649348   1.514089 C.3        1 UNL1     0.0009
     2 C         2.446373   5.456123   1.789962 C.2        1 UNL1     -0.0787
     3 C         2.701847   6.840499   1.451906 C.2        1 UNL1     -0.0649
     4 C         1.929413   8.219451   2.058695 C.2        1 UNL1     -0.0542
     5 C         1.652511   9.590046   1.830937 C.2        1 UNL1     0.0115
     6 C         2.00667   10.81244   0.940068 C.3        1 UNL1     -0.0348
     7 C         0.448204   10.283303   2.634695 C.2        1 UNL1     0.2441
     8 O         0.625569   11.009947   3.602712 O.2        1 UNL1     -0.2702
     9 N         -0.802926   10.212242   1.99769 N.am        1 UNL1     -0.2772
     10 C         -1.454458   9.051749   2.347094 C.2        1 UNL1     0.1049
     11 C         -1.120416   7.969559   1.667753 C.2        1 UNL1     0.0801
     12 C         -2.104523   7.659037   4.320696 C.ar        1 UNL1     0.0753
     13 C         -1.536119   6.545811   3.623379 C.ar        1 UNL1     0.0305
     14 C         -1.144306   6.641798   2.218985 C.2        1 UNL1     0.0924
     15 N         -0.395927   7.84538   0.542488 N.pl3        1 UNL1     -0.3170
     16 C         -0.471466   6.471866   0.120581 C.3        1 UNL1     0.1275
     17 N         -0.699277   5.696966   1.395476 N.2        1 UNL1     -0.2557
     18 C         -1.74828   6.320712   -0.700758 C.3        1 UNL1     0.0016
     19 C         -1.715409   7.326605   -1.840358 C.3        1 UNL1     0.0026
     20 N         -0.53523   7.072232   -2.654914 N.3        1 UNL1     -0.3018
     21 C         0.740146   7.134176   -1.938012 C.3        1 UNL1     0.0026
     22 C         0.686842   6.112598   -0.800721 C.3        1 UNL1     0.0016
     23 C         -0.564831   7.771069   -3.92432 C.3        1 UNL1     0.0012
     24 C         0.014969   9.186308   -3.773691 C.3        1 UNL1     -0.0339
     25 C         -0.50744   9.8757   -2.502516 C.3        1 UNL1     -0.0615
     26 C         1.532647   9.132526   -3.796947 C.3        1 UNL1     -0.0615
     27 C         -2.586458   7.526544   5.620812 C.ar        1 UNL1     0.1347
     28 C         -2.590277   6.326568   6.309357 C.ar        1 UNL1     0.0342
     29 C         -1.981331   5.255604   5.621327 C.ar        1 UNL1     0.1435
     30 C         -1.461592   5.382148   4.332498 C.ar        1 UNL1     0.0774
     31 O         -2.004758   3.99766   6.113295 O.3        1 UNL1     -0.4436
     32 C         -1.741013   3.159345   4.978157 C.3        1 UNL1     0.3143
     33 C         -1.014163   4.048392   3.989471 C.2        1 UNL1     0.2504
     34 C         -3.312821   6.052234   7.598842 C.3        1 UNL1     -0.0327
     35 O         -0.810119   2.154175   5.398063 O.2        1 UNL1     -0.4528
     36 C         -1.551085   -0.902971   3.273701 C.3        1 UNL1     0.0854
     37 C         -1.557431   -1.047106   1.703125 C.3        1 UNL1     0.0236
     38 C         -0.612465   -2.20771   1.12712 C.3        1 UNL1     0.1131
     39 C         0.898775   -2.29041   1.587104 C.3        1 UNL1     0.0200
     40 C         1.828559   -0.909063   1.6862 C.3        1 UNL1     0.0661
     41 C         1.985023   0.272142   0.478772 C.3        1 UNL1     0.0091
     42 C         2.250441   2.082428   0.612254 C.3        1 UNL1     0.0661
     43 C         -2.245601   8.938021   3.5814 C.2        1 UNL1     0.2131
     44 O         -3.0347   9.811705   3.892424 O.2        1 UNL1     -0.2851
     45 O         -3.082197   8.669567   6.244654 O.3        1 UNL1     -0.5056
     46 O         -0.226071   3.729709   3.127377 O.2        1 UNL1     -0.2836
     47 C         4.136282   3.243721   2.099809 C.3        1 UNL1     -0.0566
     48 O         3.339791   2.111895   -0.393512 O.3        1 UNL1     -0.3909
     49 C         0.901288   0.060109   -0.554696 C.3        1 UNL1     -0.0577
     50 O         1.676648   -0.292207   2.948791 O.3        1 UNL1     -0.3910
     51 O         -0.597329   -1.681948   3.959978 O.3        1 UNL1     -0.3753
     52 C         -1.699785   0.338314   0.992284 C.3        1 UNL1     -0.0564
     53 O         -0.894971   -2.556859   -0.304876 O.3        1 UNL1     -0.4608
     54 C         -0.022174   -3.179138   -1.158646 C.2        1 UNL1     0.3042
     55 O         1.175725   -2.940519   -1.306758 O.2        1 UNL1     -0.2512
     56 C         -0.640955   -4.306889   -1.934535 C.3        1 UNL1     0.0332
     57 C         0.977612   -3.330456   2.799648 C.3        1 UNL1     -0.0567
     58 C         -3.118068   2.777492   4.387026 C.3        1 UNL1     0.0210
     59 C         -0.886438   -1.90558   5.339206 C.3        1 UNL1     0.0372
     60 C         -1.409312   0.490596   3.776725 C.2        1 UNL1     -0.0208
     61 C         -0.644919   0.98407   4.751882 C.2        1 UNL1     0.0882
     62 H         2.010756   3.422909   2.285151 H        1 UNL1     0.0365
     63 H         1.775002   5.418221   2.650365 H        1 UNL1     0.0576
     64 H         3.342046   7.115576   0.610725 H        1 UNL1     0.0615
     65 H         1.386261   7.85046   2.932946 H        1 UNL1     0.0622
     66 H         -2.551207   -1.235564   3.585444 H        1 UNL1     0.0645
     67 H         -2.560565   -1.447224   1.474682 H        1 UNL1     0.0362
     68 H         -1.102804   -3.084424   1.57708 H        1 UNL1     0.0741
     69 H         1.446461   -2.894373   0.875995 H        1 UNL1     0.0359
     70 H         2.838436   -1.360888   1.718811 H        1 UNL1     0.0600
     71 H         2.874102   -0.11517   -0.056471 H        1 UNL1     0.0348
     72 H         2.553733   1.659231   1.580878 H        1 UNL1     0.0602
     73 H         -2.139586   1.105562   3.312221 H        1 UNL1     0.0628
     74 H         0.16423   0.43758   5.23754 H        1 UNL1     0.1022
     75 H         2.900846   10.59143   0.308691 H        1 UNL1     0.0279
     76 H         1.26449   11.105238   0.200807 H        1 UNL1     0.0279
     77 H         2.360842   11.675188   1.523103 H        1 UNL1     0.0279
     78 H         -0.672521   10.198331   0.988295 H        1 UNL1     0.1553
     79 H         -0.222498   8.601077   -0.094519 H        1 UNL1     0.1484
     80 H         -1.812302   5.292216   -1.076076 H        1 UNL1     0.0317
     81 H         -2.635125   6.483204   -0.078862 H        1 UNL1     0.0317
     82 H         -1.724837   8.362195   -1.469715 H        1 UNL1     0.0428
     83 H         -2.635683   7.202856   -2.412051 H        1 UNL1     0.0428
     84 H         1.603007   6.861338   -2.553513 H        1 UNL1     0.0428
     85 H         0.967841   8.153297   -1.596159 H        1 UNL1     0.0428
     86 H         1.676904   6.090821   -0.384436 H        1 UNL1     0.0317
     87 H         0.561261   5.102658   -1.2098 H        1 UNL1     0.0317
     88 H         0.056945   7.212599   -4.636219 H        1 UNL1     0.0429
     89 H         -1.580554   7.801361   -4.339247 H        1 UNL1     0.0429
     90 H         -0.276754   9.788322   -4.64242 H        1 UNL1     0.0308
     91 H         -1.335783   9.315763   -2.058196 H        1 UNL1     0.0233
     92 H         0.291013   9.981083   -1.764291 H        1 UNL1     0.0233
     93 H         -0.877776   10.889115   -2.699177 H        1 UNL1     0.0233
     94 H         1.93727   9.468914   -2.836239 H        1 UNL1     0.0233
     95 H         1.867603   8.104735   -3.962512 H        1 UNL1     0.0233
     96 H         1.942441   9.768832   -4.586347 H        1 UNL1     0.0233
     97 H         -2.856641   6.567197   8.439046 H        1 UNL1     0.0280
     98 H         -4.356369   6.391884   7.568835 H        1 UNL1     0.0280
     99 H         -3.297654   4.969924   7.807337 H        1 UNL1     0.0280
     100 H         -3.995667   8.83494   6.090228 H        1 UNL1     0.2922
     101 H         4.340448   2.198286   1.869509 H        1 UNL1     0.0236
     102 H         4.228038   3.453329   3.164998 H        1 UNL1     0.0236
     103 H         4.965037   3.800483   1.631436 H        1 UNL1     0.0236
     104 H         4.181841   1.96213   0.079237 H        1 UNL1     0.2098
     105 H         0.798055   0.871971   -1.270261 H        1 UNL1     0.0234
     106 H         0.947957   -0.8972   -1.073644 H        1 UNL1     0.0234
     107 H         0.0   -0.0   0.0 H        1 UNL1     0.0234
     108 H         0.730185   -0.075533   3.053807 H        1 UNL1     0.2098
     109 H         -0.882006   1.025018   1.251873 H        1 UNL1     0.0234
     110 H         -1.77808   0.257021   -0.097214 H        1 UNL1     0.0234
     111 H         -2.62432   0.851846   1.288032 H        1 UNL1     0.0234
     112 H         -0.612896   -5.226042   -1.341478 H        1 UNL1     0.0342
     113 H         -1.657225   -4.077027   -2.251081 H        1 UNL1     0.0342
     114 H         -0.03967   -4.471369   -2.839282 H        1 UNL1     0.0342
     115 H         0.511103   -4.291831   2.544081 H        1 UNL1     0.0234
     116 H         1.993728   -3.538849   3.140424 H        1 UNL1     0.0234
     117 H         0.379191   -3.029709   3.676794 H        1 UNL1     0.0234
     118 H         -3.098525   2.735636   3.283907 H        1 UNL1     0.0309
     119 H         -3.50401   1.829327   4.774627 H        1 UNL1     0.0309
     120 H         -3.888485   3.527277   4.597709 H        1 UNL1     0.0309
     121 H         -0.34466   -1.15601   5.915381 H        1 UNL1     0.0524
     122 H         -1.959054   -1.787475   5.566327 H        1 UNL1     0.0524
     123 H         -0.571751   -2.903176   5.632239 H        1 UNL1     0.0524
@<TRIPOS>BOND
     1     1     2    1
     2     1    42    1
     3     2     3    2
     4     3     4    1
     5     4     5    2
     6     5     7    1
     7     6    75    1
     8     6    76    1
     9     6    77    1
    10     7     9   am
    11     9    10    1
    12    10    11    2
    13    10    43    1
    14    11    14    1
    15    11    15    1
    16    12    13   ar
    17    12    27   ar
    18    12    43    1
    19    13    14    1
    20    13    30   ar
    21    14    17    2
    22    15    16    1
    23    16    17    1
    24    16    18    1
    25    16    22    1
    26    18    19    1
    27    19    20    1
    28    20    21    1
    29    21    22    1
    30    23    24    1
    31    23    88    1
    32    23    89    1
    33    24    25    1
    34    24    26    1
    35    24    90    1
    36    25    91    1
    37    25    92    1
    38    25    93    1
    39    26    94    1
    40    26    95    1
    41    26    96    1
    42    27    28   ar
    43    28    29   ar
    44    29    30   ar
    45    29    31    1
    46    30    33    1
    47    31    32    1
    48    32    33    1
    49    32    35    1
    50    34    97    1
    51    34    98    1
    52    34    99    1
    53    35    61    1
    54    36    37    1
    55    36    60    1
    56    37    38    1
    57    38    39    1
    58    39    40    1
    59    40    41    1
    60    41    42    1
    61    45   100    1
    62    47   101    1
    63    47   102    1
    64    47   103    1
    65    48   104    1
    66    49   105    1
    67    49   106    1
    68    49   107    1
    69    50   108    1
    70    51    59    1
    71    52   109    1
    72    52   110    1
    73    52   111    1
    74    53    54    1
    75    54    55    2
    76    54    56    1
    77    56   112    1
    78    56   113    1
    79    56   114    1
    80    57   115    1
    81    57   116    1
    82    57   117    1
    83    58   118    1
    84    58   119    1
    85    58   120    1
    86    59   121    1
    87    59   122    1
    88    59   123    1
    89    60    61    2
    90     1    47    1
    91     1    62    1
    92     2    63    1
    93     3    64    1
    94     4    65    1
    95     5     6    1
    96     7     8    2
    97     9    78    1
    98    15    79    1
    99    18    80    1
   100    18    81    1
   101    19    82    1
   102    19    83    1
   103    20    23    1
   104    21    84    1
   105    21    85    1
   106    22    86    1
   107    22    87    1
   108    27    45    1
   109    28    34    1
   110    32    58    1
   111    33    46    2
   112    36    51    1
   113    36    66    1
   114    37    52    1
   115    37    67    1
   116    38    53    1
   117    38    68    1
   118    42    48    1
   119    42    72    1
   120    43    44    2
   121    60    73    1
   122    61    74    1
   123    39    69    1
   124    39    57    1
   125    40    70    1
   126    40    50    1
   127    41    71    1
   128    41    49    1
