@<TRIPOS>MOLECULE
*****
 123 128 0 0 0
SMALL
GASTEIGER

@<TRIPOS>ATOM
     1 C         -3.925255   -0.463499   -1.594651 C.3        1 UNL1     0.0009
     2 C         -5.11141   -1.8856   -1.506883 C.2        1 UNL1     -0.0787
     3 C         -5.605273   -3.143235   -2.026979 C.2        1 UNL1     -0.0649
     4 C         -6.794054   -4.149078   -1.362572 C.2        1 UNL1     -0.0542
     5 C         -7.325607   -5.462145   -1.342958 C.2        1 UNL1     0.0115
     6 C         -7.278781   -6.847372   -2.044582 C.3        1 UNL1     -0.0348
     7 C         -8.267547   -5.900732   -0.119283 C.2        1 UNL1     0.2441
     8 O         -9.486239   -5.961852   -0.206349 O.2        1 UNL1     -0.2702
     9 N         -7.587359   -6.459875   0.976552 N.am        1 UNL1     -0.2772
     10 C         -7.189969   -5.473162   1.849364 C.2        1 UNL1     0.1049
     11 C         -6.063605   -4.851378   1.551182 C.2        1 UNL1     0.0801
     12 C         -8.021403   -3.459252   3.078273 C.ar        1 UNL1     0.0753
     13 C         -6.883766   -2.766706   2.554087 C.ar        1 UNL1     0.0305
     14 C         -5.79878   -3.47715   1.880941 C.2        1 UNL1     0.0924
     15 N         -5.120938   -5.159322   0.643947 N.pl3        1 UNL1     -0.3170
     16 C         -4.014773   -4.259655   0.836959 C.3        1 UNL1     0.1275
     17 N         -4.636653   -3.01716   1.42619 N.2        1 UNL1     -0.2557
     18 C         -3.134945   -4.853403   1.932892 C.3        1 UNL1     0.0016
     19 C         -2.734509   -6.262298   1.525148 C.3        1 UNL1     0.0026
     20 N         -2.020298   -6.197251   0.257592 N.3        1 UNL1     -0.3018
     21 C         -2.764315   -5.583875   -0.844486 C.3        1 UNL1     0.0026
     22 C         -3.152491   -4.167956   -0.415082 C.3        1 UNL1     0.0016
     23 C         -1.338956   -7.433846   -0.069902 C.3        1 UNL1     0.0012
     24 C         -1.228928   -8.333241   1.171363 C.3        1 UNL1     -0.0339
     25 C         -2.223604   -9.503967   1.107504 C.3        1 UNL1     -0.0615
     26 C         0.199742   -8.821873   1.335443 C.3        1 UNL1     -0.0615
     27 C         -8.991594   -2.793191   3.823397 C.ar        1 UNL1     0.1347
     28 C         -8.91264   -1.449218   4.142069 C.ar        1 UNL1     0.0342
     29 C         -7.809319   -0.777387   3.574187 C.ar        1 UNL1     0.1435
     30 C         -6.848632   -1.42396   2.795569 C.ar        1 UNL1     0.0774
     31 O         -7.533087   0.508829   3.881352 O.3        1 UNL1     -0.4436
     32 C         -6.152991   0.678575   3.524427 C.3        1 UNL1     0.3143
     33 C         -5.875919   -0.395225   2.491762 C.2        1 UNL1     0.2504
     34 C         -9.775601   -0.727331   5.139204 C.3        1 UNL1     -0.0327
     35 O         -6.038155   1.940445   2.855286 O.2        1 UNL1     -0.4528
     36 C         -2.536788   3.200557   3.604042 C.3        1 UNL1     0.0854
     37 C         -1.147447   2.510557   3.319167 C.3        1 UNL1     0.0236
     38 C         -0.118361   3.391968   2.461356 C.3        1 UNL1     0.1131
     39 C         -0.590057   4.047404   1.101144 C.3        1 UNL1     0.0200
     40 C         -1.506308   3.173497   0.01523 C.3        1 UNL1     0.0661
     41 C         -1.155565   1.613645   -0.551739 C.3        1 UNL1     0.0091
     42 C         -2.275508   0.24909   -1.050857 C.3        1 UNL1     0.0661
     43 C         -8.088268   -4.928176   2.878152 C.2        1 UNL1     0.2131
     44 O         -8.753837   -5.672756   3.574828 O.2        1 UNL1     -0.2851
     45 O         -10.090539   -3.531258   4.258155 O.3        1 UNL1     -0.5056
     46 O         -5.052554   -0.392493   1.604115 O.2        1 UNL1     -0.2836
     47 C         -4.314494   0.492611   -2.754103 C.3        1 UNL1     -0.0566
     48 O         -1.548255   -0.039621   -2.310566 O.3        1 UNL1     -0.3909
     49 C         -0.08261   1.005896   0.32399 C.3        1 UNL1     -0.0577
     50 O         -2.882048   3.278091   0.322024 O.3        1 UNL1     -0.3910
     51 O         -2.769301   4.41792   2.932182 O.3        1 UNL1     -0.3753
     52 C         -1.295867   0.968081   3.110152 C.3        1 UNL1     -0.0564
     53 O         1.291232   2.878428   2.501983 O.3        1 UNL1     -0.4608
     54 C         2.420041   3.655061   2.525732 C.2        1 UNL1     0.3042
     55 O         2.767185   4.441434   3.406042 O.2        1 UNL1     -0.2512
     56 C         3.323754   3.438806   1.345371 C.3        1 UNL1     0.0332
     57 C         -1.04259   5.547925   1.420249 C.3        1 UNL1     -0.0567
     58 C         -5.330854   0.370427   4.797481 C.3        1 UNL1     0.0210
     59 C         -4.052197   4.5277   2.317371 C.3        1 UNL1     0.0372
     60 C         -3.72737   2.34141   3.360027 C.2        1 UNL1     -0.0208
     61 C         -4.876757   2.612695   2.740303 C.2        1 UNL1     0.0882
     62 H         -4.379674   -0.053218   -0.68477 H        1 UNL1     0.0365
     63 H         -5.749563   -1.567684   -0.679744 H        1 UNL1     0.0576
     64 H         -5.109495   -3.654337   -2.855282 H        1 UNL1     0.0615
     65 H         -7.274847   -3.520909   -0.60777 H        1 UNL1     0.0622
     66 H         -2.52789   3.403421   4.684233 H        1 UNL1     0.0645
     67 H         -0.650853   2.490731   4.304845 H        1 UNL1     0.0362
     68 H         0.026511   4.233465   3.155919 H        1 UNL1     0.0741
     69 H         0.283747   4.307548   0.518737 H        1 UNL1     0.0359
     70 H         -1.376448   3.797654   -0.889549 H        1 UNL1     0.0600
     71 H         -0.576428   1.864533   -1.462021 H        1 UNL1     0.0348
     72 H         -2.879995   1.166935   -1.089214 H        1 UNL1     0.0602
     73 H         -3.610281   1.425353   3.883838 H        1 UNL1     0.0628
     74 H         -5.055701   3.501387   2.134133 H        1 UNL1     0.1022
     75 H         -8.123477   -6.949209   -2.767875 H        1 UNL1     0.0279
     76 H         -6.410534   -7.045842   -2.668943 H        1 UNL1     0.0279
     77 H         -7.481834   -7.680196   -1.355471 H        1 UNL1     0.0279
     78 H         -6.749115   -6.937131   0.651511 H        1 UNL1     0.1553
     79 H         -5.016016   -6.070598   0.237129 H        1 UNL1     0.1484
     80 H         -2.256435   -4.211995   2.072831 H        1 UNL1     0.0317
     81 H         -3.664218   -4.873582   2.891596 H        1 UNL1     0.0317
     82 H         -3.606519   -6.92901   1.454379 H        1 UNL1     0.0428
     83 H         -2.109241   -6.667589   2.321282 H        1 UNL1     0.0428
     84 H         -2.178213   -5.474858   -1.762316 H        1 UNL1     0.0428
     85 H         -3.6242   -6.196773   -1.148246 H        1 UNL1     0.0428
     86 H         -3.575039   -3.706218   -1.288145 H        1 UNL1     0.0317
     87 H         -2.250497   -3.573513   -0.224976 H        1 UNL1     0.0317
     88 H         -1.931236   -7.95901   -0.830626 H        1 UNL1     0.0429
     89 H         -0.351195   -7.240962   -0.507963 H        1 UNL1     0.0429
     90 H         -1.446702   -7.738443   2.06635 H        1 UNL1     0.0308
     91 H         -1.895874   -10.338936   1.73402 H        1 UNL1     0.0233
     92 H         -3.217911   -9.18398   1.42777 H        1 UNL1     0.0233
     93 H         -2.341632   -9.896683   0.090313 H        1 UNL1     0.0233
     94 H         0.216928   -9.912715   1.433447 H        1 UNL1     0.0233
     95 H         0.789982   -8.553171   0.454887 H        1 UNL1     0.0233
     96 H         0.670612   -8.387809   2.221918 H        1 UNL1     0.0233
     97 H         -10.827639   -0.966871   5.016455 H        1 UNL1     0.0280
     98 H         -9.525103   -0.995328   6.173942 H        1 UNL1     0.0280
     99 H         -9.652159   0.360936   5.014574 H        1 UNL1     0.0280
     100 H         -9.979502   -3.940982   5.098048 H        1 UNL1     0.2922
     101 H         -3.805078   0.188428   -3.668227 H        1 UNL1     0.0236
     102 H         -4.142314   1.54262   -2.519968 H        1 UNL1     0.0236
     103 H         -5.388156   0.431584   -2.998478 H        1 UNL1     0.0236
     104 H         -0.665528   0.374142   -2.243003 H        1 UNL1     0.2098
     105 H         0.895525   1.469405   0.222877 H        1 UNL1     0.0234
     106 H         -0.350895   0.915636   1.376512 H        1 UNL1     0.0234
     107 H         0.0   -0.0   0.0 H        1 UNL1     0.0234
     108 H         -3.17157   4.171909   0.055501 H        1 UNL1     0.2098
     109 H         -0.333105   0.443554   3.185479 H        1 UNL1     0.0234
     110 H         -2.017916   0.508629   3.79374 H        1 UNL1     0.0234
     111 H         -1.686356   0.73069   2.111598 H        1 UNL1     0.0234
     112 H         2.935113   3.977074   0.47556 H        1 UNL1     0.0342
     113 H         4.351451   3.729667   1.557694 H        1 UNL1     0.0342
     114 H         3.324073   2.366623   1.105395 H        1 UNL1     0.0342
     115 H         -0.319626   6.282313   1.039216 H        1 UNL1     0.0234
     116 H         -2.022171   5.811554   1.016554 H        1 UNL1     0.0234
     117 H         -1.042382   5.787815   2.497465 H        1 UNL1     0.0234
     118 H         -4.986942   1.290467   5.301719 H        1 UNL1     0.0309
     119 H         -5.871235   -0.25208   5.517673 H        1 UNL1     0.0309
     120 H         -4.398298   -0.160591   4.57733 H        1 UNL1     0.0309
     121 H         -4.094126   3.797791   1.509391 H        1 UNL1     0.0524
     122 H         -4.872574   4.296047   3.016911 H        1 UNL1     0.0524
     123 H         -4.196225   5.530261   1.924663 H        1 UNL1     0.0524
@<TRIPOS>BOND
     1     1     2    1
     2     1    42    1
     3     2     3    2
     4     3     4    1
     5     4     5    2
     6     5     7    1
     7     6    75    1
     8     6    76    1
     9     6    77    1
    10     7     9   am
    11     9    10    1
    12    10    11    2
    13    10    43    1
    14    11    14    1
    15    11    15    1
    16    12    13   ar
    17    12    27   ar
    18    12    43    1
    19    13    14    1
    20    13    30   ar
    21    14    17    2
    22    15    16    1
    23    16    17    1
    24    16    18    1
    25    16    22    1
    26    18    19    1
    27    19    20    1
    28    20    21    1
    29    21    22    1
    30    23    24    1
    31    23    88    1
    32    23    89    1
    33    24    25    1
    34    24    26    1
    35    24    90    1
    36    25    91    1
    37    25    92    1
    38    25    93    1
    39    26    94    1
    40    26    95    1
    41    26    96    1
    42    27    28   ar
    43    28    29   ar
    44    29    30   ar
    45    29    31    1
    46    30    33    1
    47    31    32    1
    48    32    33    1
    49    32    35    1
    50    34    97    1
    51    34    98    1
    52    34    99    1
    53    35    61    1
    54    36    37    1
    55    36    60    1
    56    37    38    1
    57    38    39    1
    58    39    40    1
    59    40    41    1
    60    41    42    1
    61    45   100    1
    62    47   101    1
    63    47   102    1
    64    47   103    1
    65    48   104    1
    66    49   105    1
    67    49   106    1
    68    49   107    1
    69    50   108    1
    70    51    59    1
    71    52   109    1
    72    52   110    1
    73    52   111    1
    74    53    54    1
    75    54    55    2
    76    54    56    1
    77    56   112    1
    78    56   113    1
    79    56   114    1
    80    57   115    1
    81    57   116    1
    82    57   117    1
    83    58   118    1
    84    58   119    1
    85    58   120    1
    86    59   121    1
    87    59   122    1
    88    59   123    1
    89    60    61    2
    90     1    47    1
    91     1    62    1
    92     2    63    1
    93     3    64    1
    94     4    65    1
    95     5     6    1
    96     7     8    2
    97     9    78    1
    98    15    79    1
    99    18    80    1
   100    18    81    1
   101    19    82    1
   102    19    83    1
   103    20    23    1
   104    21    84    1
   105    21    85    1
   106    22    86    1
   107    22    87    1
   108    27    45    1
   109    28    34    1
   110    32    58    1
   111    33    46    2
   112    36    51    1
   113    36    66    1
   114    37    52    1
   115    37    67    1
   116    38    53    1
   117    38    68    1
   118    42    48    1
   119    42    72    1
   120    43    44    2
   121    60    73    1
   122    61    74    1
   123    39    69    1
   124    39    57    1
   125    40    70    1
   126    40    50    1
   127    41    71    1
   128    41    49    1
