@<TRIPOS>MOLECULE
*****
 123 128 0 0 0
SMALL
GASTEIGER

@<TRIPOS>ATOM
     1 C         -3.982543   -1.424671   2.429485 C.3        1 UNL1     0.0009
     2 C         -5.657151   -2.150968   2.105108 C.2        1 UNL1     -0.0787
     3 C         -7.04029   -1.990904   1.708434 C.2        1 UNL1     -0.0649
     4 C         -8.199297   -3.200523   1.463724 C.2        1 UNL1     -0.0542
     5 C         -9.435749   -3.516377   0.848499 C.2        1 UNL1     0.0115
     6 C         -10.659378   -2.913953   0.104765 C.3        1 UNL1     -0.0348
     7 C         -9.831378   -5.059017   0.646685 C.2        1 UNL1     0.2441
     8 O         -10.629217   -5.641276   1.368457 O.2        1 UNL1     -0.2702
     9 N         -9.40202   -5.623228   -0.56718 N.am        1 UNL1     -0.2772
     10 C         -8.131664   -6.135365   -0.435909 C.2        1 UNL1     0.1049
     11 C         -7.140173   -5.272079   -0.562024 C.2        1 UNL1     0.0801
     12 C         -6.723716   -7.597603   1.025897 C.ar        1 UNL1     0.0753
     13 C         -5.762657   -6.536956   1.02759 C.ar        1 UNL1     0.0305
     14 C         -5.883427   -5.393547   0.125881 C.2        1 UNL1     0.0924
     15 N         -7.150514   -4.003607   -1.006323 N.pl3        1 UNL1     -0.3170
     16 C         -5.784744   -3.562474   -1.107946 C.3        1 UNL1     0.1275
     17 N         -5.045723   -4.380695   -0.07737 N.2        1 UNL1     -0.2557
     18 C         -5.261739   -4.01982   -2.466254 C.3        1 UNL1     0.0016
     19 C         -6.179544   -3.47538   -3.549217 C.3        1 UNL1     0.0026
     20 N         -6.200008   -2.022013   -3.457927 N.3        1 UNL1     -0.3018
     21 C         -6.631142   -1.486284   -2.165067 C.3        1 UNL1     0.0026
     22 C         -5.692755   -2.042326   -1.092621 C.3        1 UNL1     0.0016
     23 C         -6.798692   -1.392469   -4.618054 C.3        1 UNL1     0.0012
     24 C         -5.883918   -1.541533   -5.843911 C.3        1 UNL1     -0.0339
     25 C         -4.613054   -2.337321   -5.503792 C.3        1 UNL1     -0.0615
     26 C         -6.650292   -2.175874   -6.991545 C.3        1 UNL1     -0.0615
     27 C         -6.538683   -8.740463   1.800333 C.ar        1 UNL1     0.1347
     28 C         -5.417595   -8.952802   2.582717 C.ar        1 UNL1     0.0342
     29 C         -4.508361   -7.873969   2.606761 C.ar        1 UNL1     0.1435
     30 C         -4.698143   -6.707774   1.864338 C.ar        1 UNL1     0.0774
     31 O         -3.31589   -7.971168   3.234114 O.3        1 UNL1     -0.4436
     32 C         -2.516963   -6.926655   2.658283 C.3        1 UNL1     0.3143
     33 C         -3.511632   -5.918113   2.120055 C.2        1 UNL1     0.2504
     34 C         -5.032375   -10.249944   3.237795 C.3        1 UNL1     -0.0327
     35 O         -1.813883   -6.28763   3.730933 O.2        1 UNL1     -0.4528
     36 C         1.438473   -5.023959   2.236475 C.3        1 UNL1     0.0854
     37 C         1.662034   -4.044141   1.020951 C.3        1 UNL1     0.0236
     38 C         2.563859   -2.758567   1.346155 C.3        1 UNL1     0.1131
     39 C         2.224013   -1.858373   2.601712 C.3        1 UNL1     0.0200
     40 C         0.644339   -1.444263   2.94168 C.3        1 UNL1     0.0661
     41 C         -0.471162   -0.793838   1.841583 C.3        1 UNL1     0.0091
     42 C         -2.29229   -0.989085   1.737772 C.3        1 UNL1     0.0661
     43 C         -7.88037   -7.480024   0.103624 C.2        1 UNL1     0.2131
     44 O         -8.532439   -8.43292   -0.283069 O.2        1 UNL1     -0.2851
     45 O         -7.54358   -9.705379   1.77672 O.3        1 UNL1     -0.5056
     46 O         -3.36506   -4.727063   1.959518 O.2        1 UNL1     -0.2836
     47 C         -3.983297   -0.646321   3.772672 C.3        1 UNL1     -0.0566
     48 O         -2.552444   0.461008   1.568459 O.3        1 UNL1     -0.3909
     49 C         0.071227   -0.961847   0.439769 C.3        1 UNL1     -0.0577
     50 O         0.022859   -2.441321   3.727404 O.3        1 UNL1     -0.3910
     51 O         1.903506   -4.569802   3.487441 O.3        1 UNL1     -0.3753
     52 C         0.401632   -3.96366   0.099073 C.3        1 UNL1     -0.0564
     53 O         3.049903   -2.040499   0.12122 O.3        1 UNL1     -0.4608
     54 C         3.172953   -0.681753   -0.007614 C.2        1 UNL1     0.3042
     55 O         4.164166   -0.053272   -0.376866 O.2        1 UNL1     -0.2512
     56 C         1.907393   0.068249   0.296638 C.3        1 UNL1     0.0332
     57 C         3.141663   -2.355125   3.813872 C.3        1 UNL1     -0.0567
     58 C         -1.757571   -7.561398   1.470027 C.3        1 UNL1     0.0210
     59 C         3.064062   -5.241348   3.975296 C.3        1 UNL1     0.0372
     60 C         0.031769   -5.46704   2.436535 C.2        1 UNL1     -0.0208
     61 C         -0.695258   -5.559464   3.550821 C.2        1 UNL1     0.0882
     62 H         -3.609886   -2.431882   2.651666 H        1 UNL1     0.0365
     63 H         -5.490501   -3.188123   2.403447 H        1 UNL1     0.0576
     64 H         -7.42838   -1.031296   1.359658 H        1 UNL1     0.0615
     65 H         -7.747827   -4.088887   1.913687 H        1 UNL1     0.0622
     66 H         2.004102   -5.927895   1.969998 H        1 UNL1     0.0645
     67 H         2.322072   -4.608557   0.339523 H        1 UNL1     0.0362
     68 H         3.513252   -3.257636   1.593348 H        1 UNL1     0.0741
     69 H         2.700419   -0.894924   2.478378 H        1 UNL1     0.0359
     70 H         0.813943   -0.605082   3.643158 H        1 UNL1     0.0600
     71 H         -0.302134   0.287598   2.011531 H        1 UNL1     0.0348
     72 H         -2.014938   -1.272138   2.763575 H        1 UNL1     0.0602
     73 H         -0.345366   -5.85528   1.523141 H        1 UNL1     0.0628
     74 H         -0.405863   -5.135309   4.512892 H        1 UNL1     0.1022
     75 H         -11.04302   -2.015154   0.645148 H        1 UNL1     0.0279
     76 H         -10.476736   -2.526049   -0.894856 H        1 UNL1     0.0279
     77 H         -11.539085   -3.573654   0.129465 H        1 UNL1     0.0279
     78 H         -9.36938   -4.903547   -1.286257 H        1 UNL1     0.1553
     79 H         -7.890512   -3.613627   -1.560626 H        1 UNL1     0.1484
     80 H         -4.233953   -3.658976   -2.59359 H        1 UNL1     0.0317
     81 H         -5.219262   -5.112894   -2.521366 H        1 UNL1     0.0317
     82 H         -7.194711   -3.891317   -3.469552 H        1 UNL1     0.0428
     83 H         -5.78939   -3.814806   -4.509227 H        1 UNL1     0.0428
     84 H         -6.561339   -0.39621   -2.096669 H        1 UNL1     0.0428
     85 H         -7.690931   -1.698688   -1.967459 H        1 UNL1     0.0428
     86 H         -5.952699   -1.528488   -0.185765 H        1 UNL1     0.0317
     87 H         -4.664968   -1.711647   -1.286016 H        1 UNL1     0.0317
     88 H         -7.750058   -1.898413   -4.828332 H        1 UNL1     0.0429
     89 H         -7.031521   -0.33759   -4.423646 H        1 UNL1     0.0429
     90 H         -5.588787   -0.545641   -6.195069 H        1 UNL1     0.0308
     91 H         -3.712031   -1.742164   -5.679999 H        1 UNL1     0.0233
     92 H         -4.629082   -2.663711   -4.461285 H        1 UNL1     0.0233
     93 H         -4.516173   -3.247634   -6.107762 H        1 UNL1     0.0233
     94 H         -5.95456   -2.634467   -7.70252 H        1 UNL1     0.0233
     95 H         -7.310114   -2.960844   -6.611521 H        1 UNL1     0.0233
     96 H         -7.252993   -1.436231   -7.526006 H        1 UNL1     0.0233
     97 H         -4.050134   -10.198086   3.697952 H        1 UNL1     0.0280
     98 H         -5.726223   -10.529889   4.041201 H        1 UNL1     0.0280
     99 H         -5.018878   -11.054258   2.484143 H        1 UNL1     0.0280
     100 H         -7.233825   -10.593806   1.796023 H        1 UNL1     0.2922
     101 H         -3.470299   -1.230462   4.536392 H        1 UNL1     0.0236
     102 H         -4.979751   -0.341984   4.091172 H        1 UNL1     0.0236
     103 H         -3.409993   0.293471   3.707044 H        1 UNL1     0.0236
     104 H         -1.925375   0.942234   2.143069 H        1 UNL1     0.2098
     105 H         1.112254   -1.271819   0.395163 H        1 UNL1     0.0234
     106 H         -0.537683   -1.588151   -0.212074 H        1 UNL1     0.0234
     107 H         0.0   0.0   -0.0 H        1 UNL1     0.0234
     108 H         -0.666578   -2.001877   4.261571 H        1 UNL1     0.2098
     109 H         0.142379   -4.938458   -0.337126 H        1 UNL1     0.0234
     110 H         -0.474819   -3.54344   0.604041 H        1 UNL1     0.0234
     111 H         0.565852   -3.290878   -0.753184 H        1 UNL1     0.0234
     112 H         2.04298   1.131588   0.076933 H        1 UNL1     0.0342
     113 H         1.052012   -0.33613   -0.242476 H        1 UNL1     0.0342
     114 H         1.700307   -0.029886   1.371184 H        1 UNL1     0.0342
     115 H         3.423048   -1.527143   4.479047 H        1 UNL1     0.0234
     116 H         2.681581   -3.129845   4.430461 H        1 UNL1     0.0234
     117 H         4.133607   -2.718436   3.494506 H        1 UNL1     0.0234
     118 H         -0.690729   -7.727374   1.700909 H        1 UNL1     0.0309
     119 H         -2.201125   -8.502675   1.130232 H        1 UNL1     0.0309
     120 H         -1.727123   -6.906331   0.592493 H        1 UNL1     0.0309
     121 H         3.057411   -5.163765   5.062169 H        1 UNL1     0.0524
     122 H         3.065513   -6.313902   3.719047 H        1 UNL1     0.0524
     123 H         3.961805   -4.781314   3.572159 H        1 UNL1     0.0524
@<TRIPOS>BOND
     1     1     2    1
     2     1    42    1
     3     2     3    2
     4     3     4    1
     5     4     5    2
     6     5     7    1
     7     6    75    1
     8     6    76    1
     9     6    77    1
    10     7     9   am
    11     9    10    1
    12    10    11    2
    13    10    43    1
    14    11    14    1
    15    11    15    1
    16    12    13   ar
    17    12    27   ar
    18    12    43    1
    19    13    14    1
    20    13    30   ar
    21    14    17    2
    22    15    16    1
    23    16    17    1
    24    16    18    1
    25    16    22    1
    26    18    19    1
    27    19    20    1
    28    20    21    1
    29    21    22    1
    30    23    24    1
    31    23    88    1
    32    23    89    1
    33    24    25    1
    34    24    26    1
    35    24    90    1
    36    25    91    1
    37    25    92    1
    38    25    93    1
    39    26    94    1
    40    26    95    1
    41    26    96    1
    42    27    28   ar
    43    28    29   ar
    44    29    30   ar
    45    29    31    1
    46    30    33    1
    47    31    32    1
    48    32    33    1
    49    32    35    1
    50    34    97    1
    51    34    98    1
    52    34    99    1
    53    35    61    1
    54    36    37    1
    55    36    60    1
    56    37    38    1
    57    38    39    1
    58    39    40    1
    59    40    41    1
    60    41    42    1
    61    45   100    1
    62    47   101    1
    63    47   102    1
    64    47   103    1
    65    48   104    1
    66    49   105    1
    67    49   106    1
    68    49   107    1
    69    50   108    1
    70    51    59    1
    71    52   109    1
    72    52   110    1
    73    52   111    1
    74    53    54    1
    75    54    55    2
    76    54    56    1
    77    56   112    1
    78    56   113    1
    79    56   114    1
    80    57   115    1
    81    57   116    1
    82    57   117    1
    83    58   118    1
    84    58   119    1
    85    58   120    1
    86    59   121    1
    87    59   122    1
    88    59   123    1
    89    60    61    2
    90     1    47    1
    91     1    62    1
    92     2    63    1
    93     3    64    1
    94     4    65    1
    95     5     6    1
    96     7     8    2
    97     9    78    1
    98    15    79    1
    99    18    80    1
   100    18    81    1
   101    19    82    1
   102    19    83    1
   103    20    23    1
   104    21    84    1
   105    21    85    1
   106    22    86    1
   107    22    87    1
   108    27    45    1
   109    28    34    1
   110    32    58    1
   111    33    46    2
   112    36    51    1
   113    36    66    1
   114    37    52    1
   115    37    67    1
   116    38    53    1
   117    38    68    1
   118    42    48    1
   119    42    72    1
   120    43    44    2
   121    60    73    1
   122    61    74    1
   123    39    69    1
   124    39    57    1
   125    40    70    1
   126    40    50    1
   127    41    71    1
   128    41    49    1
