@<TRIPOS>MOLECULE
*****
 123 128 0 0 0
SMALL
GASTEIGER

@<TRIPOS>ATOM
     1 C         5.168717   1.741769   0.499881 C.3        1 UNL1     0.0009
     2 C         6.607922   2.54589   -0.348125 C.2        1 UNL1     -0.0787
     3 C         7.890778   2.445933   -1.011703 C.2        1 UNL1     -0.0649
     4 C         8.771171   3.679834   -1.765861 C.2        1 UNL1     -0.0542
     5 C         9.793163   3.971056   -2.70277 C.2        1 UNL1     0.0115
     6 C         10.921955   3.344044   -3.566488 C.3        1 UNL1     -0.0348
     7 C         9.891537   5.454159   -3.309166 C.2        1 UNL1     0.2441
     8 O         10.715906   6.274697   -2.930142 O.2        1 UNL1     -0.2702
     9 N         9.143558   5.662106   -4.481103 N.am        1 UNL1     -0.2772
     10 C         7.860848   6.050545   -4.169508 C.2        1 UNL1     0.1049
     11 C         7.013252   5.080296   -3.878957 C.2        1 UNL1     0.0801
     12 C         6.562287   7.659015   -2.760999 C.ar        1 UNL1     0.0753
     13 C         5.800946   6.532151   -2.314742 C.ar        1 UNL1     0.0305
     14 C         5.917178   5.226268   -2.959887 C.2        1 UNL1     0.0924
     15 N         7.134328   3.751146   -4.037795 N.pl3        1 UNL1     -0.3170
     16 C         5.863129   3.153718   -3.725723 C.3        1 UNL1     0.1275
     17 N         5.226393   4.109855   -2.746901 N.2        1 UNL1     -0.2557
     18 C         5.012478   3.213904   -4.990821 C.3        1 UNL1     0.0016
     19 C         5.768313   2.528743   -6.118143 C.3        1 UNL1     0.0026
     20 N         6.035932   1.150288   -5.731785 N.3        1 UNL1     -0.3018
     21 C         6.796995   0.9889   -4.491179 C.3        1 UNL1     0.0026
     22 C         6.017316   1.680522   -3.371511 C.3        1 UNL1     0.0016
     23 C         6.481177   0.330105   -6.840703 C.3        1 UNL1     0.0012
     24 C         5.325918   0.07853   -7.822458 C.3        1 UNL1     -0.0339
     25 C         5.350411   1.080594   -8.988359 C.3        1 UNL1     -0.0615
     26 C         5.366695   -1.356622   -8.317892 C.3        1 UNL1     -0.0615
     27 C         6.358452   8.927007   -2.221771 C.ar        1 UNL1     0.1347
     28 C         5.398158   9.197898   -1.263386 C.ar        1 UNL1     0.0342
     29 C         4.694282   8.064422   -0.804086 C.ar        1 UNL1     0.1435
     30 C         4.912823   6.782078   -1.309113 C.ar        1 UNL1     0.0774
     31 O         3.652022   8.17944   0.04766 O.3        1 UNL1     -0.4436
     32 C         2.928903   6.947599   -0.09566 C.3        1 UNL1     0.3143
     33 C         3.941733   5.953093   -0.626079 C.2        1 UNL1     0.2504
     34 C         4.952446   10.564627   -0.823508 C.3        1 UNL1     -0.0327
     35 O         2.565476   6.511445   1.219993 O.2        1 UNL1     -0.4528
     36 C         -0.679534   4.583663   0.817928 C.3        1 UNL1     0.0854
     37 C         -0.985061   3.323458   -0.07988 C.3        1 UNL1     0.0236
     38 C         -1.588647   2.063268   0.707107 C.3        1 UNL1     0.1131
     39 C         -0.865782   1.531402   2.009741 C.3        1 UNL1     0.0200
     40 C         0.795139   1.383595   2.053682 C.3        1 UNL1     0.0661
     41 C         1.755405   0.613406   0.886502 C.3        1 UNL1     0.0091
     42 C         3.464421   0.97361   0.325327 C.3        1 UNL1     0.0661
     43 C         7.51391   7.449967   -3.880361 C.2        1 UNL1     0.2131
     44 O         7.916213   8.347466   -4.598265 O.2        1 UNL1     -0.2851
     45 O         7.172891   9.960985   -2.678954 O.3        1 UNL1     -0.5056
     46 O         3.955864   4.749544   -0.495221 O.2        1 UNL1     -0.2836
     47 C         5.5621   1.311821   1.938762 C.3        1 UNL1     -0.0566
     48 O         3.910924   -0.438102   0.407924 O.3        1 UNL1     -0.3909
     49 C         0.922965   0.381893   -0.354843 C.3        1 UNL1     -0.0577
     50 O         1.396344   2.600657   2.447428 O.3        1 UNL1     -0.3910
     51 O         -0.806194   4.394228   2.209151 O.3        1 UNL1     -0.3753
     52 C         0.061089   3.161505   -1.230658 C.3        1 UNL1     -0.0564
     53 O         -2.19117   1.025062   -0.193681 O.3        1 UNL1     -0.4608
     54 C         -2.415821   -0.284607   0.141325 C.2        1 UNL1     0.3042
     55 O         -1.844328   -1.278404   -0.305443 O.2        1 UNL1     -0.2512
     56 C         -3.447137   -0.461249   1.219239 C.3        1 UNL1     0.0332
     57 C         -1.587991   2.201444   3.269754 C.3        1 UNL1     -0.0567
     58 C         1.855846   7.194101   -1.181623 C.3        1 UNL1     0.0210
     59 C         -1.149935   5.567373   2.944975 C.3        1 UNL1     0.0372
     60 C         0.650701   5.21092   0.589487 C.2        1 UNL1     -0.0208
     61 C         1.562785   5.644953   1.460385 C.2        1 UNL1     0.0882
     62 H         4.693997   2.726595   0.586308 H        1 UNL1     0.0365
     63 H         6.34294   3.600057   -0.243317 H        1 UNL1     0.0576
     64 H         8.347477   1.478447   -1.23194 H        1 UNL1     0.0615
     65 H         8.284764   4.595914   -1.4199 H        1 UNL1     0.0622
     66 H         -1.422648   5.331191   0.506431 H        1 UNL1     0.0645
     67 H         -1.849171   3.633972   -0.692624 H        1 UNL1     0.0362
     68 H         -2.535701   2.501457   1.057251 H        1 UNL1     0.0741
     69 H         -1.19901   0.520769   2.204648 H        1 UNL1     0.0359
     70 H         0.904552   0.723162   2.935112 H        1 UNL1     0.0600
     71 H         1.796884   -0.407794   1.313571 H        1 UNL1     0.0348
     72 H         3.357584   1.462015   1.304797 H        1 UNL1     0.0602
     73 H         0.770582   5.407949   -0.44688 H        1 UNL1     0.0628
     74 H         1.543179   5.434375   2.530203 H        1 UNL1     0.1022
     75 H         10.964672   2.238714   -3.413336 H        1 UNL1     0.0279
     76 H         10.810222   3.426926   -4.645244 H        1 UNL1     0.0279
     77 H         11.926904   3.647393   -3.238221 H        1 UNL1     0.0279
     78 H         9.081237   4.792212   -5.005963 H        1 UNL1     0.1553
     79 H         7.800033   3.32221   -4.65406 H        1 UNL1     0.1484
     80 H         4.050206   2.724296   -4.798249 H        1 UNL1     0.0317
     81 H         4.787736   4.25095   -5.262258 H        1 UNL1     0.0317
     82 H         6.700111   3.058757   -6.36462 H        1 UNL1     0.0428
     83 H         5.144713   2.584687   -7.010916 H        1 UNL1     0.0428
     84 H         6.915377   -0.054197   -4.18175 H        1 UNL1     0.0428
     85 H         7.82776   1.355518   -4.593314 H        1 UNL1     0.0428
     86 H         6.531894   1.429508   -2.462561 H        1 UNL1     0.0317
     87 H         5.037014   1.204232   -3.248014 H        1 UNL1     0.0317
     88 H         7.276666   0.872153   -7.3686 H        1 UNL1     0.0429
     89 H         6.914728   -0.614891   -6.488865 H        1 UNL1     0.0429
     90 H         4.372995   0.184837   -7.290621 H        1 UNL1     0.0308
     91 H         6.29933   1.036074   -9.531197 H        1 UNL1     0.0233
     92 H         4.530267   0.884992   -9.683134 H        1 UNL1     0.0233
     93 H         5.22507   2.116683   -8.651248 H        1 UNL1     0.0233
     94 H         4.670476   -1.487721   -9.153313 H        1 UNL1     0.0233
     95 H         6.371277   -1.60027   -8.674842 H        1 UNL1     0.0233
     96 H         5.093079   -2.059935   -7.526404 H        1 UNL1     0.0233
     97 H         4.157817   10.515979   -0.084977 H        1 UNL1     0.0280
     98 H         5.765199   11.133589   -0.353433 H        1 UNL1     0.0280
     99 H         4.580978   11.129614   -1.694081 H        1 UNL1     0.0280
     100 H         6.707417   10.71195   -3.003002 H        1 UNL1     0.2922
     101 H         4.697861   0.879393   2.442502 H        1 UNL1     0.0236
     102 H         6.013022   2.116587   2.51842 H        1 UNL1     0.0236
     103 H         6.317253   0.508119   1.938963 H        1 UNL1     0.0236
     104 H         4.32884   -0.564606   1.282173 H        1 UNL1     0.2098
     105 H         0.712493   1.280976   -0.928571 H        1 UNL1     0.0234
     106 H         1.292361   -0.406676   -1.010307 H        1 UNL1     0.0234
     107 H         0.0   -0.0   0.0 H        1 UNL1     0.0234
     108 H         1.197445   3.259868   1.754862 H        1 UNL1     0.2098
     109 H         1.085138   3.046656   -0.848763 H        1 UNL1     0.0234
     110 H         -0.171359   2.334677   -1.910414 H        1 UNL1     0.0234
     111 H         0.084564   4.044244   -1.883472 H        1 UNL1     0.0234
     112 H         -3.574312   -1.525014   1.441896 H        1 UNL1     0.0342
     113 H         -3.199039   0.099367   2.119239 H        1 UNL1     0.0342
     114 H         -4.405926   -0.079017   0.842692 H        1 UNL1     0.0342
     115 H         -2.652602   1.934472   3.319929 H        1 UNL1     0.0234
     116 H         -1.13839   1.94035   4.229826 H        1 UNL1     0.0234
     117 H         -1.646859   3.301816   3.209279 H        1 UNL1     0.0234
     118 H         0.954757   7.682263   -0.770839 H        1 UNL1     0.0309
     119 H         2.227414   7.781522   -2.027244 H        1 UNL1     0.0309
     120 H         1.466707   6.262643   -1.607138 H        1 UNL1     0.0309
     121 H         -0.345981   6.289996   2.807749 H        1 UNL1     0.0524
     122 H         -2.080516   6.032723   2.57959 H        1 UNL1     0.0524
     123 H         -1.264651   5.329904   3.998798 H        1 UNL1     0.0524
@<TRIPOS>BOND
     1     1     2    1
     2     1    42    1
     3     2     3    2
     4     3     4    1
     5     4     5    2
     6     5     7    1
     7     6    75    1
     8     6    76    1
     9     6    77    1
    10     7     9   am
    11     9    10    1
    12    10    11    2
    13    10    43    1
    14    11    14    1
    15    11    15    1
    16    12    13   ar
    17    12    27   ar
    18    12    43    1
    19    13    14    1
    20    13    30   ar
    21    14    17    2
    22    15    16    1
    23    16    17    1
    24    16    18    1
    25    16    22    1
    26    18    19    1
    27    19    20    1
    28    20    21    1
    29    21    22    1
    30    23    24    1
    31    23    88    1
    32    23    89    1
    33    24    25    1
    34    24    26    1
    35    24    90    1
    36    25    91    1
    37    25    92    1
    38    25    93    1
    39    26    94    1
    40    26    95    1
    41    26    96    1
    42    27    28   ar
    43    28    29   ar
    44    29    30   ar
    45    29    31    1
    46    30    33    1
    47    31    32    1
    48    32    33    1
    49    32    35    1
    50    34    97    1
    51    34    98    1
    52    34    99    1
    53    35    61    1
    54    36    37    1
    55    36    60    1
    56    37    38    1
    57    38    39    1
    58    39    40    1
    59    40    41    1
    60    41    42    1
    61    45   100    1
    62    47   101    1
    63    47   102    1
    64    47   103    1
    65    48   104    1
    66    49   105    1
    67    49   106    1
    68    49   107    1
    69    50   108    1
    70    51    59    1
    71    52   109    1
    72    52   110    1
    73    52   111    1
    74    53    54    1
    75    54    55    2
    76    54    56    1
    77    56   112    1
    78    56   113    1
    79    56   114    1
    80    57   115    1
    81    57   116    1
    82    57   117    1
    83    58   118    1
    84    58   119    1
    85    58   120    1
    86    59   121    1
    87    59   122    1
    88    59   123    1
    89    60    61    2
    90     1    47    1
    91     1    62    1
    92     2    63    1
    93     3    64    1
    94     4    65    1
    95     5     6    1
    96     7     8    2
    97     9    78    1
    98    15    79    1
    99    18    80    1
   100    18    81    1
   101    19    82    1
   102    19    83    1
   103    20    23    1
   104    21    84    1
   105    21    85    1
   106    22    86    1
   107    22    87    1
   108    27    45    1
   109    28    34    1
   110    32    58    1
   111    33    46    2
   112    36    51    1
   113    36    66    1
   114    37    52    1
   115    37    67    1
   116    38    53    1
   117    38    68    1
   118    42    48    1
   119    42    72    1
   120    43    44    2
   121    60    73    1
   122    61    74    1
   123    39    69    1
   124    39    57    1
   125    40    70    1
   126    40    50    1
   127    41    71    1
   128    41    49    1
