@<TRIPOS>MOLECULE
*****
 123 128 0 0 0
SMALL
GASTEIGER

@<TRIPOS>ATOM
     1 C         3.751839   3.620435   1.099696 C.3        1 UNL1     0.0009
     2 C         4.246418   5.36414   0.709923 C.2        1 UNL1     -0.0787
     3 C         5.163306   6.302763   0.098083 C.2        1 UNL1     -0.0649
     4 C         4.996909   7.982159   -0.037198 C.2        1 UNL1     -0.0542
     5 C         5.423078   9.138565   -0.735898 C.2        1 UNL1     0.0115
     6 C         6.462091   9.678192   -1.756964 C.3        1 UNL1     -0.0348
     7 C         4.531381   10.470678   -0.650219 C.2        1 UNL1     0.2441
     8 O         4.822656   11.421732   0.061947 O.2        1 UNL1     -0.2702
     9 N         3.538675   10.57957   -1.639577 N.am        1 UNL1     -0.2772
     10 C         2.376937   9.971038   -1.223191 C.2        1 UNL1     0.1049
     11 C         2.311419   8.663095   -1.39411 C.2        1 UNL1     0.0801
     12 C         0.788472   9.837469   0.704572 C.ar        1 UNL1     0.0753
     13 C         0.916078   8.415024   0.609841 C.ar        1 UNL1     0.0305
     14 C         1.579062   7.780303   -0.5271 C.2        1 UNL1     0.0924
     15 N         3.108156   7.843328   -2.101019 N.pl3        1 UNL1     -0.3170
     16 C         2.503523   6.5377   -2.103868 C.3        1 UNL1     0.1275
     17 N         1.700905   6.490207   -0.826655 N.2        1 UNL1     -0.2557
     18 C         1.488806   6.511801   -3.242894 C.3        1 UNL1     0.0016
     19 C         2.199915   6.877152   -4.53612 C.3        1 UNL1     0.0026
     20 N         3.271807   5.918728   -4.767416 N.3        1 UNL1     -0.3018
     21 C         4.265572   5.826796   -3.695805 C.3        1 UNL1     0.0026
     22 C         3.530057   5.45433   -2.407325 C.3        1 UNL1     0.0016
     23 C         3.815191   5.993274   -6.10899 C.3        1 UNL1     0.0012
     24 C         2.797777   5.464708   -7.132338 C.3        1 UNL1     -0.0339
     25 C         1.983159   6.608863   -7.757929 C.3        1 UNL1     -0.0615
     26 C         3.506041   4.638487   -8.19182 C.3        1 UNL1     -0.0615
     27 C         0.051349   10.429457   1.727469 C.ar        1 UNL1     0.1347
     28 C         -0.632907   9.704152   2.686518 C.ar        1 UNL1     0.0342
     29 C         -0.452757   8.307158   2.602151 C.ar        1 UNL1     0.1435
     30 C         0.312271   7.701768   1.604425 C.ar        1 UNL1     0.0774
     31 O         -1.141279   7.458548   3.396383 O.3        1 UNL1     -0.4436
     32 C         -1.066728   6.192031   2.724631 C.3        1 UNL1     0.3143
     33 C         0.164375   6.281665   1.845675 C.2        1 UNL1     0.2504
     34 C         -1.641289   10.255304   3.655795 C.3        1 UNL1     -0.0327
     35 O         -0.797148   5.197132   3.719997 O.2        1 UNL1     -0.4528
     36 C         -2.405139   1.999095   2.457059 C.3        1 UNL1     0.0854
     37 C         -2.163963   1.230846   1.100906 C.3        1 UNL1     0.0236
     38 C         -1.754767   -0.311413   1.261345 C.3        1 UNL1     0.1131
     39 C         -0.570616   -0.712828   2.230326 C.3        1 UNL1     0.0200
     40 C         0.843919   0.171054   2.247101 C.3        1 UNL1     0.0661
     41 C         1.755383   0.613426   0.886531 C.3        1 UNL1     0.0091
     42 C         2.780355   2.10235   0.573579 C.3        1 UNL1     0.0661
     43 C         1.392743   10.658409   -0.373934 C.2        1 UNL1     0.2131
     44 O         1.041515   11.795586   -0.631232 O.2        1 UNL1     -0.2851
     45 O         0.014988   11.821559   1.774031 O.3        1 UNL1     -0.5056
     46 O         0.875886   5.384788   1.451699 O.2        1 UNL1     -0.2836
     47 C         4.649911   3.044433   2.227379 C.3        1 UNL1     -0.0566
     48 O         3.94003   1.33545   0.057697 O.3        1 UNL1     -0.3909
     49 C         0.922964   0.381908   -0.354828 C.3        1 UNL1     -0.0577
     50 O         0.74079   1.265013   3.136113 O.3        1 UNL1     -0.3910
     51 O         -2.06605   1.296969   3.631567 O.3        1 UNL1     -0.3753
     52 C         -1.518189   2.153671   0.016324 C.3        1 UNL1     -0.0564
     53 O         -1.87403   -1.099798   -0.010092 O.3        1 UNL1     -0.4608
     54 C         -1.244481   -2.28885   -0.270384 C.2        1 UNL1     0.3042
     55 O         -0.344822   -2.495186   -1.083944 O.2        1 UNL1     -0.2512
     56 C         -1.707918   -3.418806   0.604338 C.3        1 UNL1     0.0332
     57 C         -1.214646   -1.115386   3.637929 C.3        1 UNL1     -0.0567
     58 C         -2.31889   6.101475   1.821625 C.3        1 UNL1     0.0210
     59 C         -2.814525   1.667315   4.7885 C.3        1 UNL1     0.0372
     60 C         -1.749983   3.332269   2.549673 C.2        1 UNL1     -0.0208
     61 C         -1.055818   3.887108   3.544175 C.2        1 UNL1     0.0882
     62 H         2.847574   4.005913   1.58593 H        1 UNL1     0.0365
     63 H         3.47496   5.919546   1.247369 H        1 UNL1     0.0576
     64 H         6.011408   5.965915   -0.502219 H        1 UNL1     0.0615
     65 H         4.18397   8.220028   0.6542 H        1 UNL1     0.0622
     66 H         -3.486851   2.19298   2.47586 H        1 UNL1     0.0645
     67 H         -3.171585   1.145658   0.658188 H        1 UNL1     0.0362
     68 H         -2.667748   -0.694928   1.74187 H        1 UNL1     0.0741
     69 H         -0.227342   -1.704696   1.968087 H        1 UNL1     0.0359
     70 H         1.50999   -0.544885   2.765599 H        1 UNL1     0.0600
     71 H         2.458577   -0.241089   0.838787 H        1 UNL1     0.0348
     72 H         2.659519   2.041279   1.664901 H        1 UNL1     0.0602
     73 H         -2.013333   3.91067   1.699175 H        1 UNL1     0.0628
     74 H         -0.697089   3.347914   4.421569 H        1 UNL1     0.1022
     75 H         7.147136   8.860881   -2.088251 H        1 UNL1     0.0279
     76 H         6.067645   10.049899   -2.7 H        1 UNL1     0.0279
     77 H         7.172263   10.387123   -1.306659 H        1 UNL1     0.0279
     78 H         3.846219   10.105723   -2.486314 H        1 UNL1     0.1553
     79 H         3.728078   8.157002   -2.825063 H        1 UNL1     0.1484
     80 H         1.041374   5.512173   -3.300454 H        1 UNL1     0.0317
     81 H         0.668392   7.21191   -3.052057 H        1 UNL1     0.0317
     82 H         2.587676   7.906187   -4.510835 H        1 UNL1     0.0428
     83 H         1.457806   6.854397   -5.334748 H        1 UNL1     0.0428
     84 H         5.01384   5.044629   -3.857421 H        1 UNL1     0.0428
     85 H         4.85761   6.748184   -3.607192 H        1 UNL1     0.0428
     86 H         4.297689   5.266146   -1.679783 H        1 UNL1     0.0317
     87 H         3.04426   4.477642   -2.522118 H        1 UNL1     0.0317
     88 H         4.023054   7.047274   -6.335203 H        1 UNL1     0.0429
     89 H         4.768434   5.454266   -6.183642 H        1 UNL1     0.0429
     90 H         2.106375   4.778041   -6.62968 H        1 UNL1     0.0308
     91 H         2.634526   7.341194   -8.244256 H        1 UNL1     0.0233
     92 H         1.270813   6.220686   -8.489701 H        1 UNL1     0.0233
     93 H         1.390421   7.154818   -7.014 H        1 UNL1     0.0233
     94 H         2.823117   4.420931   -9.020144 H        1 UNL1     0.0233
     95 H         4.356588   5.196155   -8.593739 H        1 UNL1     0.0233
     96 H         3.866851   3.690385   -7.783303 H        1 UNL1     0.0233
     97 H         -2.06902   9.479557   4.283881 H        1 UNL1     0.0280
     98 H         -1.197562   10.987625   4.342868 H        1 UNL1     0.0280
     99 H         -2.460267   10.740722   3.10015 H        1 UNL1     0.0280
     100 H         -0.850696   12.190301   1.78963 H        1 UNL1     0.2922
     101 H         4.323567   2.035293   2.477963 H        1 UNL1     0.0236
     102 H         4.701002   3.687583   3.105292 H        1 UNL1     0.0236
     103 H         5.697545   2.927418   1.903398 H        1 UNL1     0.0236
     104 H         4.553201   1.18991   0.804563 H        1 UNL1     0.2098
     105 H         0.712488   1.280991   -0.928553 H        1 UNL1     0.0234
     106 H         1.292382   -0.406652   -1.010291 H        1 UNL1     0.0234
     107 H         0.0   -0.0   0.0 H        1 UNL1     0.0234
     108 H         0.049606   1.859388   2.785752 H        1 UNL1     0.2098
     109 H         -0.547532   2.556674   0.337456 H        1 UNL1     0.0234
     110 H         -1.407225   1.662224   -0.956255 H        1 UNL1     0.0234
     111 H         -2.147047   3.028175   -0.197514 H        1 UNL1     0.0234
     112 H         -1.164455   -4.33372   0.349532 H        1 UNL1     0.0342
     113 H         -1.605606   -3.18562   1.66311 H        1 UNL1     0.0342
     114 H         -2.773917   -3.593274   0.403413 H        1 UNL1     0.0342
     115 H         -1.901489   -1.967796   3.543953 H        1 UNL1     0.0234
     116 H         -0.480827   -1.368093   4.405847 H        1 UNL1     0.0234
     117 H         -1.887498   -0.344044   4.050534 H        1 UNL1     0.0234
     118 H         -3.208474   5.760082   2.379387 H        1 UNL1     0.0309
     119 H         -2.552993   7.043672   1.315995 H        1 UNL1     0.0309
     120 H         -2.213337   5.350933   1.030644 H        1 UNL1     0.0309
     121 H         -2.609259   2.718024   4.99156 H        1 UNL1     0.0524
     122 H         -3.901592   1.565298   4.633852 H        1 UNL1     0.0524
     123 H         -2.520393   1.057014   5.637684 H        1 UNL1     0.0524
@<TRIPOS>BOND
     1     1     2    1
     2     1    42    1
     3     2     3    2
     4     3     4    1
     5     4     5    2
     6     5     7    1
     7     6    75    1
     8     6    76    1
     9     6    77    1
    10     7     9   am
    11     9    10    1
    12    10    11    2
    13    10    43    1
    14    11    14    1
    15    11    15    1
    16    12    13   ar
    17    12    27   ar
    18    12    43    1
    19    13    14    1
    20    13    30   ar
    21    14    17    2
    22    15    16    1
    23    16    17    1
    24    16    18    1
    25    16    22    1
    26    18    19    1
    27    19    20    1
    28    20    21    1
    29    21    22    1
    30    23    24    1
    31    23    88    1
    32    23    89    1
    33    24    25    1
    34    24    26    1
    35    24    90    1
    36    25    91    1
    37    25    92    1
    38    25    93    1
    39    26    94    1
    40    26    95    1
    41    26    96    1
    42    27    28   ar
    43    28    29   ar
    44    29    30   ar
    45    29    31    1
    46    30    33    1
    47    31    32    1
    48    32    33    1
    49    32    35    1
    50    34    97    1
    51    34    98    1
    52    34    99    1
    53    35    61    1
    54    36    37    1
    55    36    60    1
    56    37    38    1
    57    38    39    1
    58    39    40    1
    59    40    41    1
    60    41    42    1
    61    45   100    1
    62    47   101    1
    63    47   102    1
    64    47   103    1
    65    48   104    1
    66    49   105    1
    67    49   106    1
    68    49   107    1
    69    50   108    1
    70    51    59    1
    71    52   109    1
    72    52   110    1
    73    52   111    1
    74    53    54    1
    75    54    55    2
    76    54    56    1
    77    56   112    1
    78    56   113    1
    79    56   114    1
    80    57   115    1
    81    57   116    1
    82    57   117    1
    83    58   118    1
    84    58   119    1
    85    58   120    1
    86    59   121    1
    87    59   122    1
    88    59   123    1
    89    60    61    2
    90     1    47    1
    91     1    62    1
    92     2    63    1
    93     3    64    1
    94     4    65    1
    95     5     6    1
    96     7     8    2
    97     9    78    1
    98    15    79    1
    99    18    80    1
   100    18    81    1
   101    19    82    1
   102    19    83    1
   103    20    23    1
   104    21    84    1
   105    21    85    1
   106    22    86    1
   107    22    87    1
   108    27    45    1
   109    28    34    1
   110    32    58    1
   111    33    46    2
   112    36    51    1
   113    36    66    1
   114    37    52    1
   115    37    67    1
   116    38    53    1
   117    38    68    1
   118    42    48    1
   119    42    72    1
   120    43    44    2
   121    60    73    1
   122    61    74    1
   123    39    69    1
   124    39    57    1
   125    40    70    1
   126    40    50    1
   127    41    71    1
   128    41    49    1
