@<TRIPOS>MOLECULE
*****
 123 128 0 0 0
SMALL
GASTEIGER

@<TRIPOS>ATOM
     1 C         3.899255   1.444579   3.230318 C.3        1 UNL1     0.0009
     2 C         4.388415   2.610161   4.586481 C.2        1 UNL1     -0.0787
     3 C         4.912687   3.890012   5.014461 C.2        1 UNL1     -0.0649
     4 C         5.03138   4.490671   6.592903 C.2        1 UNL1     -0.0542
     5 C         5.166379   5.658336   7.383733 C.2        1 UNL1     0.0115
     6 C         5.460298   7.18294   7.33358 C.3        1 UNL1     -0.0348
     7 C         4.789212   5.588752   8.942544 C.2        1 UNL1     0.2441
     8 O         5.630066   5.513943   9.827922 O.2        1 UNL1     -0.2702
     9 N         3.446328   5.881946   9.237251 N.am        1 UNL1     -0.2772
     10 C         2.679506   4.741534   9.168215 C.2        1 UNL1     0.1049
     11 C         2.269616   4.387805   7.963604 C.2        1 UNL1     0.0801
     12 C         2.586641   2.363946   9.940086 C.ar        1 UNL1     0.0753
     13 C         2.34963   2.011612   8.57323 C.ar        1 UNL1     0.0305
     14 C         2.052823   3.024184   7.562461 C.2        1 UNL1     0.0924
     15 N         2.29923   5.070273   6.806069 N.pl3        1 UNL1     -0.3170
     16 C         1.574092   4.305573   5.826445 C.3        1 UNL1     0.1275
     17 N         1.713816   2.874551   6.285116 N.2        1 UNL1     -0.2557
     18 C         0.097566   4.657436   5.980612 C.3        1 UNL1     0.0016
     19 C         -0.060335   6.163421   5.843989 C.3        1 UNL1     0.0026
     20 N         0.441637   6.569876   4.538674 N.3        1 UNL1     -0.3018
     21 C         1.83824   6.218911   4.272796 C.3        1 UNL1     0.0026
     22 C         1.973009   4.701462   4.41093 C.3        1 UNL1     0.0016
     23 C         0.067897   7.925573   4.187894 C.3        1 UNL1     0.0012
     24 C         1.055427   8.931864   4.799384 C.3        1 UNL1     -0.0339
     25 C         2.35   8.241123   5.258747 C.3        1 UNL1     -0.0615
     26 C         1.338693   10.049785   3.811055 C.3        1 UNL1     -0.0615
     27 C         2.74899   1.386992   10.919536 C.ar        1 UNL1     0.1347
     28 C         2.655728   0.031122   10.660754 C.ar        1 UNL1     0.0342
     29 C         2.470591   -0.293137   9.299966 C.ar        1 UNL1     0.1435
     30 C         2.342375   0.674054   8.302307 C.ar        1 UNL1     0.0774
     31 O         2.250531   -1.565301   8.90225 O.3        1 UNL1     -0.4436
     32 C         1.655216   -1.440894   7.601867 C.3        1 UNL1     0.3143
     33 C         2.095237   -0.083084   7.092997 C.2        1 UNL1     0.2504
     34 C         2.567937   -1.059312   11.691942 C.3        1 UNL1     -0.0327
     35 O         2.268837   -2.422033   6.756829 O.2        1 UNL1     -0.4528
     36 C         -0.362608   -3.380965   4.194791 C.3        1 UNL1     0.0854
     37 C         -1.143972   -2.463097   3.177683 C.3        1 UNL1     0.0236
     38 C         -1.032834   -2.909519   1.641421 C.3        1 UNL1     0.1131
     39 C         0.388554   -3.188486   1.005729 C.3        1 UNL1     0.0200
     40 C         1.665943   -2.159195   1.307846 C.3        1 UNL1     0.0661
     41 C         1.637512   -0.469691   1.15825 C.3        1 UNL1     0.0091
     42 C         2.533335   0.823748   2.101606 C.3        1 UNL1     0.0661
     43 C         2.564763   3.804541   10.295705 C.2        1 UNL1     0.2131
     44 O         2.360736   4.216425   11.423296 O.2        1 UNL1     -0.2851
     45 O         3.021602   1.813901   12.217562 O.3        1 UNL1     -0.5056
     46 O         2.232448   0.284082   5.947477 O.2        1 UNL1     -0.2836
     47 C         5.160823   0.832381   2.564255 C.3        1 UNL1     -0.0566
     48 O         2.969182   1.564339   0.893021 O.3        1 UNL1     -0.3909
     49 C         0.200038   -0.014297   1.040865 C.3        1 UNL1     -0.0577
     50 O         2.33631   -2.527808   2.496314 O.3        1 UNL1     -0.3910
     51 O         0.470104   -4.364334   3.622945 O.3        1 UNL1     -0.3753
     52 C         -1.117454   -0.960867   3.610756 C.3        1 UNL1     -0.0564
     53 O         -2.045882   -2.252346   0.750252 O.3        1 UNL1     -0.4608
     54 C         -1.895948   -1.035472   0.13815 C.2        1 UNL1     0.3042
     55 O         -2.650625   -0.066239   0.208064 O.2        1 UNL1     -0.2512
     56 C         -0.621881   -0.910587   -0.647897 C.3        1 UNL1     0.0332
     57 C         0.659995   -4.761713   1.102942 C.3        1 UNL1     -0.0567
     58 C         0.124626   -1.419219   7.821759 C.3        1 UNL1     0.0210
     59 C         -0.065647   -5.686671   3.639071 C.3        1 UNL1     0.0372
     60 C         0.461113   -2.650486   5.196312 C.2        1 UNL1     -0.0208
     61 C         1.706179   -2.873188   5.619348 C.2        1 UNL1     0.0882
     62 H         3.568389   0.727952   3.991688 H        1 UNL1     0.0365
     63 H         4.224428   1.981546   5.464218 H        1 UNL1     0.0576
     64 H         5.14088   4.683278   4.299084 H        1 UNL1     0.0615
     65 H         4.865907   3.610327   7.219876 H        1 UNL1     0.0622
     66 H         -1.150009   -3.891493   4.766984 H        1 UNL1     0.0645
     67 H         -2.206915   -2.671523   3.390456 H        1 UNL1     0.0362
     68 H         -1.524507   -3.892579   1.699504 H        1 UNL1     0.0741
     69 H         0.301733   -3.148697   -0.071901 H        1 UNL1     0.0359
     70 H         2.353453   -2.465164   0.496198 H        1 UNL1     0.0600
     71 H         1.985284   -0.362403   0.112066 H        1 UNL1     0.0348
     72 H         3.085714   -0.112041   2.270403 H        1 UNL1     0.0602
     73 H         -0.141947   -1.92343   5.681036 H        1 UNL1     0.0628
     74 H         2.406908   -3.558012   5.140565 H        1 UNL1     0.1022
     75 H         6.387247   7.42259   7.908357 H        1 UNL1     0.0279
     76 H         5.67679   7.603306   6.354042 H        1 UNL1     0.0279
     77 H         4.710061   7.778671   7.873904 H        1 UNL1     0.0279
     78 H         3.081022   6.538745   8.550779 H        1 UNL1     0.1553
     79 H         2.403756   6.066669   6.74948 H        1 UNL1     0.1484
     80 H         -0.479018   4.123244   5.215789 H        1 UNL1     0.0317
     81 H         -0.284868   4.323976   6.951282 H        1 UNL1     0.0317
     82 H         0.4564   6.70193   6.652015 H        1 UNL1     0.0428
     83 H         -1.120201   6.39259   5.958948 H        1 UNL1     0.0428
     84 H         2.16641   6.463592   3.257785 H        1 UNL1     0.0428
     85 H         2.53007   6.777032   4.918697 H        1 UNL1     0.0428
     86 H         2.968452   4.467996   4.081422 H        1 UNL1     0.0317
     87 H         1.336744   4.199916   3.671527 H        1 UNL1     0.0317
     88 H         0.106352   8.018429   3.094645 H        1 UNL1     0.0429
     89 H         -0.96289   8.14676   4.49339 H        1 UNL1     0.0429
     90 H         0.588252   9.411122   5.667872 H        1 UNL1     0.0308
     91 H         3.001034   8.935103   5.798791 H        1 UNL1     0.0233
     92 H         2.124899   7.386765   5.901406 H        1 UNL1     0.0233
     93 H         2.93352   7.846203   4.418284 H        1 UNL1     0.0233
     94 H         1.671605   10.948092   4.342139 H        1 UNL1     0.0233
     95 H         2.135478   9.749012   3.125029 H        1 UNL1     0.0233
     96 H         0.448268   10.302696   3.228692 H        1 UNL1     0.0233
     97 H         2.24511   -0.681857   12.657624 H        1 UNL1     0.0280
     98 H         1.84157   -1.834178   11.41404 H        1 UNL1     0.0280
     99 H         3.557275   -1.528894   11.817635 H        1 UNL1     0.0280
     100 H         3.109584   2.746002   12.3128 H        1 UNL1     0.2922
     101 H         5.441384   1.425166   1.693883 H        1 UNL1     0.0236
     102 H         5.047327   -0.223445   2.320669 H        1 UNL1     0.0236
     103 H         6.041051   0.87477   3.227274 H        1 UNL1     0.0236
     104 H         3.337904   2.419809   1.188293 H        1 UNL1     0.2098
     105 H         -0.521366   -0.679159   1.509208 H        1 UNL1     0.0234
     106 H         0.021764   1.015262   1.350952 H        1 UNL1     0.0234
     107 H         0.0   0.0   0.0 H        1 UNL1     0.0234
     108 H         2.508335   -3.487858   2.446519 H        1 UNL1     0.2098
     109 H         -1.394185   -0.286026   2.788734 H        1 UNL1     0.0234
     110 H         -1.746695   -0.753207   4.482924 H        1 UNL1     0.0234
     111 H         -0.113189   -0.648377   3.926585 H        1 UNL1     0.0234
     112 H         -0.40651   -1.853388   -1.159842 H        1 UNL1     0.0342
     113 H         -0.655495   -0.081725   -1.353377 H        1 UNL1     0.0342
     114 H         0.198172   -0.714969   0.056667 H        1 UNL1     0.0342
     115 H         0.953823   -5.063516   2.117717 H        1 UNL1     0.0234
     116 H         -0.192494   -5.37818   0.810916 H        1 UNL1     0.0234
     117 H         1.536097   -5.093828   0.519771 H        1 UNL1     0.0234
     118 H         -0.343604   -0.517607   7.389482 H        1 UNL1     0.0309
     119 H         -0.378618   -2.307957   7.427943 H        1 UNL1     0.0309
     120 H         -0.147024   -1.361496   8.881466 H        1 UNL1     0.0309
     121 H         -0.898922   -5.713368   2.937433 H        1 UNL1     0.0524
     122 H         0.669502   -6.43996   3.310212 H        1 UNL1     0.0524
     123 H         -0.408441   -5.941155   4.637982 H        1 UNL1     0.0524
@<TRIPOS>BOND
     1     1     2    1
     2     1    42    1
     3     2     3    2
     4     3     4    1
     5     4     5    2
     6     5     7    1
     7     6    75    1
     8     6    76    1
     9     6    77    1
    10     7     9   am
    11     9    10    1
    12    10    11    2
    13    10    43    1
    14    11    14    1
    15    11    15    1
    16    12    13   ar
    17    12    27   ar
    18    12    43    1
    19    13    14    1
    20    13    30   ar
    21    14    17    2
    22    15    16    1
    23    16    17    1
    24    16    18    1
    25    16    22    1
    26    18    19    1
    27    19    20    1
    28    20    21    1
    29    21    22    1
    30    23    24    1
    31    23    88    1
    32    23    89    1
    33    24    25    1
    34    24    26    1
    35    24    90    1
    36    25    91    1
    37    25    92    1
    38    25    93    1
    39    26    94    1
    40    26    95    1
    41    26    96    1
    42    27    28   ar
    43    28    29   ar
    44    29    30   ar
    45    29    31    1
    46    30    33    1
    47    31    32    1
    48    32    33    1
    49    32    35    1
    50    34    97    1
    51    34    98    1
    52    34    99    1
    53    35    61    1
    54    36    37    1
    55    36    60    1
    56    37    38    1
    57    38    39    1
    58    39    40    1
    59    40    41    1
    60    41    42    1
    61    45   100    1
    62    47   101    1
    63    47   102    1
    64    47   103    1
    65    48   104    1
    66    49   105    1
    67    49   106    1
    68    49   107    1
    69    50   108    1
    70    51    59    1
    71    52   109    1
    72    52   110    1
    73    52   111    1
    74    53    54    1
    75    54    55    2
    76    54    56    1
    77    56   112    1
    78    56   113    1
    79    56   114    1
    80    57   115    1
    81    57   116    1
    82    57   117    1
    83    58   118    1
    84    58   119    1
    85    58   120    1
    86    59   121    1
    87    59   122    1
    88    59   123    1
    89    60    61    2
    90     1    47    1
    91     1    62    1
    92     2    63    1
    93     3    64    1
    94     4    65    1
    95     5     6    1
    96     7     8    2
    97     9    78    1
    98    15    79    1
    99    18    80    1
   100    18    81    1
   101    19    82    1
   102    19    83    1
   103    20    23    1
   104    21    84    1
   105    21    85    1
   106    22    86    1
   107    22    87    1
   108    27    45    1
   109    28    34    1
   110    32    58    1
   111    33    46    2
   112    36    51    1
   113    36    66    1
   114    37    52    1
   115    37    67    1
   116    38    53    1
   117    38    68    1
   118    42    48    1
   119    42    72    1
   120    43    44    2
   121    60    73    1
   122    61    74    1
   123    39    69    1
   124    39    57    1
   125    40    70    1
   126    40    50    1
   127    41    71    1
   128    41    49    1
