@<TRIPOS>MOLECULE
*****
 123 128 0 0 0
SMALL
GASTEIGER

@<TRIPOS>ATOM
     1 C         2.565662   -1.818118   4.213175 C.3        1 UNL1     0.0009
     2 C         3.219371   -3.408291   4.906753 C.2        1 UNL1     -0.0787
     3 C         3.188968   -4.444272   5.917626 C.2        1 UNL1     -0.0649
     4 C         4.069104   -5.890126   5.952651 C.2        1 UNL1     -0.0542
     5 C         4.137725   -7.194593   6.501042 C.2        1 UNL1     0.0115
     6 C         3.533727   -8.138964   7.57653 C.3        1 UNL1     -0.0348
     7 C         5.058463   -8.293495   5.778792 C.2        1 UNL1     0.2441
     8 O         6.16169   -8.616306   6.197372 O.2        1 UNL1     -0.2702
     9 N         4.407589   -9.047035   4.786476 N.am        1 UNL1     -0.2772
     10 C         4.492835   -8.412562   3.568486 C.2        1 UNL1     0.1049
     11 C         3.600782   -7.465394   3.341914 C.2        1 UNL1     0.0801
     12 C         6.114559   -7.310287   2.015316 C.ar        1 UNL1     0.0753
     13 C         5.200818   -6.209624   1.968135 C.ar        1 UNL1     0.0305
     14 C         3.854029   -6.308773   2.52615 C.2        1 UNL1     0.0924
     15 N         2.482958   -7.151712   4.019114 N.pl3        1 UNL1     -0.3170
     16 C         1.775411   -6.154108   3.261211 C.3        1 UNL1     0.1275
     17 N         2.851838   -5.43536   2.485049 N.2        1 UNL1     -0.2557
     18 C         0.927045   -6.88884   2.227699 C.3        1 UNL1     0.0016
     19 C         0.030209   -7.880774   2.951123 C.3        1 UNL1     0.0026
     20 N         -0.807176   -7.152715   3.894386 N.3        1 UNL1     -0.3018
     21 C         -0.079965   -6.364472   4.891485 C.3        1 UNL1     0.0026
     22 C         0.811031   -5.371691   4.142882 C.3        1 UNL1     0.0016
     23 C         -1.897339   -7.95329   4.415219 C.3        1 UNL1     0.0012
     24 C         -1.609752   -9.44972   4.215846 C.3        1 UNL1     -0.0339
     25 C         -2.871845   -10.211626   3.77918 C.3        1 UNL1     -0.0615
     26 C         -0.474271   -9.634206   3.224166 C.3        1 UNL1     -0.0615
     27 C         7.350701   -7.250025   1.376224 C.ar        1 UNL1     0.1347
     28 C         7.765687   -6.162062   0.629113 C.ar        1 UNL1     0.0342
     29 C         6.870521   -5.071295   0.637368 C.ar        1 UNL1     0.1435
     30 C         5.644534   -5.103598   1.303051 C.ar        1 UNL1     0.0774
     31 O         7.080871   -3.981136   -0.13225 O.3        1 UNL1     -0.4436
     32 C         5.795223   -3.349179   -0.225056 C.3        1 UNL1     0.3143
     33 C         5.028195   -3.831339   0.989606 C.2        1 UNL1     0.2504
     34 C         8.95842   -6.123695   -0.285225 C.3        1 UNL1     -0.0327
     35 O         5.999717   -1.940878   -0.057355 O.2        1 UNL1     -0.4528
     36 C         3.261071   -0.245243   -2.065521 C.3        1 UNL1     0.0854
     37 C         1.696169   -0.401762   -1.946757 C.3        1 UNL1     0.0236
     38 C         0.894804   0.969302   -1.723726 C.3        1 UNL1     0.1131
     39 C         1.342607   1.962861   -0.577173 C.3        1 UNL1     0.0200
     40 C         1.745774   1.382594   0.933848 C.3        1 UNL1     0.0661
     41 C         0.821637   0.306345   1.864045 C.3        1 UNL1     0.0091
     42 C         1.343247   -0.988036   3.054803 C.3        1 UNL1     0.0661
     43 C         5.665395   -8.552221   2.692157 C.2        1 UNL1     0.2131
     44 O         6.148089   -9.648989   2.475724 O.2        1 UNL1     -0.2851
     45 O         8.199859   -8.346682   1.509309 O.3        1 UNL1     -0.5056
     46 O         4.126355   -3.279263   1.579311 O.2        1 UNL1     -0.2836
     47 C         3.06556   -0.615443   5.057957 C.3        1 UNL1     -0.0566
     48 O         0.379031   -0.573636   4.102504 O.3        1 UNL1     -0.3909
     49 C         -0.244882   -0.307216   0.984515 C.3        1 UNL1     -0.0577
     50 O         3.109593   1.014607   0.981886 O.3        1 UNL1     -0.3910
     51 O         3.774492   1.038425   -1.78979 O.3        1 UNL1     -0.3753
     52 C         1.297616   -1.725729   -1.21654 C.3        1 UNL1     -0.0564
     53 O         -0.581716   0.847734   -1.963383 O.3        1 UNL1     -0.4608
     54 C         -1.429928   1.88687   -2.243852 C.2        1 UNL1     0.3042
     55 O         -2.102256   2.048326   -3.261568 O.2        1 UNL1     -0.2512
     56 C         -1.554425   2.880565   -1.124127 C.3        1 UNL1     0.0332
     57 C         2.304563   3.057634   -1.236179 C.3        1 UNL1     -0.0567
     58 C         5.121117   -3.913756   -1.497205 C.3        1 UNL1     0.0210
     59 C         3.202961   2.091656   -2.564336 C.3        1 UNL1     0.0372
     60 C         4.052859   -1.208009   -1.252309 C.2        1 UNL1     -0.0208
     61 C         5.119366   -1.011509   -0.475975 C.2        1 UNL1     0.0882
     62 H         3.262095   -1.920864   3.372262 H        1 UNL1     0.0365
     63 H         4.044317   -3.606392   4.219228 H        1 UNL1     0.0576
     64 H         2.433345   -4.452443   6.706343 H        1 UNL1     0.0615
     65 H         4.837923   -5.745784   5.188736 H        1 UNL1     0.0622
     66 H         3.483396   -0.483269   -3.115264 H        1 UNL1     0.0645
     67 H         1.376397   -0.679549   -2.966139 H        1 UNL1     0.0362
     68 H         1.14088   1.481613   -2.666331 H        1 UNL1     0.0741
     69 H         0.524431   2.637081   -0.361711 H        1 UNL1     0.0359
     70 H         1.69158   2.320529   1.518998 H        1 UNL1     0.0600
     71 H         0.225384   1.026769   2.457702 H        1 UNL1     0.0348
     72 H         2.201737   -0.30885   2.949837 H        1 UNL1     0.0602
     73 H         3.723258   -2.19542   -1.461191 H        1 UNL1     0.0628
     74 H         5.485169   -0.031688   -0.167145 H        1 UNL1     0.1022
     75 H         3.468346   -7.619001   8.562632 H        1 UNL1     0.0279
     76 H         2.508692   -8.465094   7.415248 H        1 UNL1     0.0279
     77 H         4.194622   -8.983667   7.820243 H        1 UNL1     0.0279
     78 H         3.42018   -9.135961   5.017111 H        1 UNL1     0.1553
     79 H         2.02482   -7.775873   4.657445 H        1 UNL1     0.1484
     80 H         0.339144   -6.15621   1.661669 H        1 UNL1     0.0317
     81 H         1.559719   -7.411048   1.501977 H        1 UNL1     0.0317
     82 H         0.614274   -8.661148   3.460825 H        1 UNL1     0.0428
     83 H         -0.564613   -8.394863   2.195511 H        1 UNL1     0.0428
     84 H         -0.730326   -5.765247   5.536289 H        1 UNL1     0.0428
     85 H         0.475007   -7.003459   5.592213 H        1 UNL1     0.0428
     86 H         1.223604   -4.727285   4.89688 H        1 UNL1     0.0317
     87 H         0.193474   -4.694413   3.540377 H        1 UNL1     0.0317
     88 H         -1.983356   -7.754293   5.491461 H        1 UNL1     0.0429
     89 H         -2.854136   -7.669617   3.958227 H        1 UNL1     0.0429
     90 H         -1.254005   -9.876185   5.161247 H        1 UNL1     0.0308
     91 H         -3.614111   -10.24499   4.582317 H        1 UNL1     0.0233
     92 H         -3.318301   -9.746212   2.897321 H        1 UNL1     0.0233
     93 H         -2.657189   -11.250563   3.501027 H        1 UNL1     0.0233
     94 H         -0.049444   -8.662147   2.951295 H        1 UNL1     0.0233
     95 H         0.320842   -10.235263   3.674152 H        1 UNL1     0.0233
     96 H         -0.817868   -10.129577   2.311743 H        1 UNL1     0.0233
     97 H         9.241713   -5.107555   -0.542975 H        1 UNL1     0.0280
     98 H         9.846922   -6.575983   0.174401 H        1 UNL1     0.0280
     99 H         8.726531   -6.66474   -1.217208 H        1 UNL1     0.0280
     100 H         7.785159   -9.125536   1.836469 H        1 UNL1     0.2922
     101 H         3.863216   -0.098185   4.525187 H        1 UNL1     0.0236
     102 H         3.362889   -0.895243   6.068052 H        1 UNL1     0.0236
     103 H         2.281386   0.147402   5.196995 H        1 UNL1     0.0236
     104 H         -0.298312   -0.013691   3.675143 H        1 UNL1     0.2098
     105 H         -0.267625   -1.394007   0.997953 H        1 UNL1     0.0234
     106 H         -1.246925   0.09352   1.136984 H        1 UNL1     0.0234
     107 H         0.0   0.0   0.0 H        1 UNL1     0.0234
     108 H         3.306801   0.751288   1.901419 H        1 UNL1     0.2098
     109 H         1.934237   -1.927253   -0.34372 H        1 UNL1     0.0234
     110 H         0.244696   -1.751198   -0.915785 H        1 UNL1     0.0234
     111 H         1.40814   -2.599074   -1.873045 H        1 UNL1     0.0234
     112 H         -2.608524   3.120709   -0.955152 H        1 UNL1     0.0342
     113 H         -1.082597   2.527105   -0.208546 H        1 UNL1     0.0342
     114 H         -1.042864   3.804563   -1.426944 H        1 UNL1     0.0342
     115 H         2.897387   3.58915   -0.479054 H        1 UNL1     0.0234
     116 H         3.00077   2.651236   -1.972511 H        1 UNL1     0.0234
     117 H         1.760838   3.894552   -1.707215 H        1 UNL1     0.0234
     118 H         5.592583   -4.853623   -1.833917 H        1 UNL1     0.0309
     119 H         4.045171   -4.075648   -1.377485 H        1 UNL1     0.0309
     120 H         5.23363   -3.250797   -2.362036 H        1 UNL1     0.0309
     121 H         3.694284   2.089661   -3.536938 H        1 UNL1     0.0524
     122 H         2.123713   1.945573   -2.737312 H        1 UNL1     0.0524
     123 H         3.354648   3.046876   -2.069724 H        1 UNL1     0.0524
@<TRIPOS>BOND
     1     1     2    1
     2     1    42    1
     3     2     3    2
     4     3     4    1
     5     4     5    2
     6     5     7    1
     7     6    75    1
     8     6    76    1
     9     6    77    1
    10     7     9   am
    11     9    10    1
    12    10    11    2
    13    10    43    1
    14    11    14    1
    15    11    15    1
    16    12    13   ar
    17    12    27   ar
    18    12    43    1
    19    13    14    1
    20    13    30   ar
    21    14    17    2
    22    15    16    1
    23    16    17    1
    24    16    18    1
    25    16    22    1
    26    18    19    1
    27    19    20    1
    28    20    21    1
    29    21    22    1
    30    23    24    1
    31    23    88    1
    32    23    89    1
    33    24    25    1
    34    24    26    1
    35    24    90    1
    36    25    91    1
    37    25    92    1
    38    25    93    1
    39    26    94    1
    40    26    95    1
    41    26    96    1
    42    27    28   ar
    43    28    29   ar
    44    29    30   ar
    45    29    31    1
    46    30    33    1
    47    31    32    1
    48    32    33    1
    49    32    35    1
    50    34    97    1
    51    34    98    1
    52    34    99    1
    53    35    61    1
    54    36    37    1
    55    36    60    1
    56    37    38    1
    57    38    39    1
    58    39    40    1
    59    40    41    1
    60    41    42    1
    61    45   100    1
    62    47   101    1
    63    47   102    1
    64    47   103    1
    65    48   104    1
    66    49   105    1
    67    49   106    1
    68    49   107    1
    69    50   108    1
    70    51    59    1
    71    52   109    1
    72    52   110    1
    73    52   111    1
    74    53    54    1
    75    54    55    2
    76    54    56    1
    77    56   112    1
    78    56   113    1
    79    56   114    1
    80    57   115    1
    81    57   116    1
    82    57   117    1
    83    58   118    1
    84    58   119    1
    85    58   120    1
    86    59   121    1
    87    59   122    1
    88    59   123    1
    89    60    61    2
    90     1    47    1
    91     1    62    1
    92     2    63    1
    93     3    64    1
    94     4    65    1
    95     5     6    1
    96     7     8    2
    97     9    78    1
    98    15    79    1
    99    18    80    1
   100    18    81    1
   101    19    82    1
   102    19    83    1
   103    20    23    1
   104    21    84    1
   105    21    85    1
   106    22    86    1
   107    22    87    1
   108    27    45    1
   109    28    34    1
   110    32    58    1
   111    33    46    2
   112    36    51    1
   113    36    66    1
   114    37    52    1
   115    37    67    1
   116    38    53    1
   117    38    68    1
   118    42    48    1
   119    42    72    1
   120    43    44    2
   121    60    73    1
   122    61    74    1
   123    39    69    1
   124    39    57    1
   125    40    70    1
   126    40    50    1
   127    41    71    1
   128    41    49    1
