@<TRIPOS>MOLECULE
*****
 123 128 0 0 0
SMALL
GASTEIGER

@<TRIPOS>ATOM
     1 C         5.088656   -1.544911   0.12553 C.3        1 UNL1     0.0009
     2 C         6.419193   -2.484082   -0.760284 C.2        1 UNL1     -0.0787
     3 C         7.11854   -3.724   -1.024034 C.2        1 UNL1     -0.0649
     4 C         8.334021   -4.010269   -2.16728 C.2        1 UNL1     -0.0542
     5 C         9.014083   -5.002954   -2.915058 C.2        1 UNL1     0.0115
     6 C         9.217043   -6.534474   -3.078076 C.3        1 UNL1     -0.0348
     7 C         9.852409   -4.56123   -4.210851 C.2        1 UNL1     0.2441
     8 O         11.071334   -4.457557   -4.211275 O.2        1 UNL1     -0.2702
     9 N         9.121153   -4.554849   -5.411424 N.am        1 UNL1     -0.2772
     10 C         8.50833   -3.336468   -5.593953 C.2        1 UNL1     0.1049
     11 C         7.357862   -3.164136   -4.968693 C.2        1 UNL1     0.0801
     12 C         8.941334   -0.873035   -5.557307 C.ar        1 UNL1     0.0753
     13 C         7.797653   -0.763994   -4.703661 C.ar        1 UNL1     0.0305
     14 C         6.892499   -1.890883   -4.489487 C.2        1 UNL1     0.0924
     15 N         6.571841   -4.057761   -4.344087 N.pl3        1 UNL1     -0.3170
     16 C         5.350323   -3.39002   -3.980399 C.3        1 UNL1     0.1275
     17 N         5.744602   -1.942112   -3.819685 N.2        1 UNL1     -0.2557
     18 C         4.426427   -3.445217   -5.193276 C.3        1 UNL1     0.0016
     19 C         4.249286   -4.898332   -5.603966 C.3        1 UNL1     0.0026
     20 N         3.685633   -5.636159   -4.481943 N.3        1 UNL1     -0.3018
     21 C         4.474   -5.590298   -3.248759 C.3        1 UNL1     0.0026
     22 C         4.635675   -4.121847   -2.852013 C.3        1 UNL1     0.0016
     23 C         3.201414   -6.949743   -4.857004 C.3        1 UNL1     0.0012
     24 C         1.937568   -6.830824   -5.723208 C.3        1 UNL1     -0.0339
     25 C         1.562132   -5.360604   -5.971312 C.3        1 UNL1     -0.0615
     26 C         2.126522   -7.587137   -7.026691 C.3        1 UNL1     -0.0615
     27 C         9.73026   0.236361   -5.852186 C.ar        1 UNL1     0.1347
     28 C         9.453072   1.509206   -5.386263 C.ar        1 UNL1     0.0342
     29 C         8.350828   1.58345   -4.508362 C.ar        1 UNL1     0.1435
     30 C         7.572839   0.473992   -4.175112 C.ar        1 UNL1     0.0774
     31 O         7.887477   2.769702   -4.057674 O.3        1 UNL1     -0.4436
     32 C         6.548271   2.493514   -3.620501 C.3        1 UNL1     0.3143
     33 C         6.525417   1.006668   -3.328986 C.2        1 UNL1     0.2504
     34 C         10.100083   2.781353   -5.858615 C.3        1 UNL1     -0.0327
     35 O         6.361147   3.166836   -2.369552 O.2        1 UNL1     -0.4528
     36 C         2.67   4.03502   -2.196973 C.3        1 UNL1     0.0854
     37 C         1.416939   3.081498   -2.287283 C.3        1 UNL1     0.0236
     38 C         0.396509   3.187844   -1.054742 C.3        1 UNL1     0.1131
     39 C         0.941545   3.086483   0.426788 C.3        1 UNL1     0.0200
     40 C         2.077174   1.933924   0.832241 C.3        1 UNL1     0.0661
     41 C         1.985849   0.278914   0.471393 C.3        1 UNL1     0.0091
     42 C         3.312817   -0.935527   0.111265 C.3        1 UNL1     0.0661
     43 C         9.207809   -2.188603   -6.190183 C.2        1 UNL1     0.2131
     44 O         9.872232   -2.326881   -7.201201 O.2        1 UNL1     -0.2851
     45 O         10.851748   0.035569   -6.654299 O.3        1 UNL1     -0.5056
     46 O         5.817245   0.401173   -2.555862 O.2        1 UNL1     -0.2836
     47 C         5.492664   -1.303323   1.604852 C.3        1 UNL1     -0.0566
     48 O         2.778053   -1.96517   1.034833 O.3        1 UNL1     -0.3909
     49 C         0.899014   0.063148   -0.558038 C.3        1 UNL1     -0.0577
     50 O         3.384864   2.410606   0.586389 O.3        1 UNL1     -0.3910
     51 O         2.830974   4.727145   -0.979402 O.3        1 UNL1     -0.3753
     52 C         1.77372   1.713539   -2.955374 C.3        1 UNL1     -0.0564
     53 O         -0.935868   2.550693   -1.321456 O.3        1 UNL1     -0.4608
     54 C         -1.428317   1.441317   -0.685288 C.2        1 UNL1     0.3042
     55 O         -2.529066   1.314022   -0.150512 O.2        1 UNL1     -0.2512
     56 C         -0.497901   0.262567   -0.725149 C.3        1 UNL1     0.0332
     57 C         1.169359   4.57714   0.959907 C.3        1 UNL1     -0.0567
     58 C         5.626087   2.779259   -4.82858 C.3        1 UNL1     0.0210
     59 C         4.001531   5.539331   -0.901841 C.3        1 UNL1     0.0372
     60 C         3.975814   3.387713   -2.498646 C.2        1 UNL1     -0.0208
     61 C         5.14863   3.472759   -1.86935 C.2        1 UNL1     0.0882
     62 H         5.380717   -0.645302   -0.429551 H        1 UNL1     0.0365
     63 H         6.913194   -1.674938   -1.302243 H        1 UNL1     0.0576
     64 H         6.788325   -4.670778   -0.590814 H        1 UNL1     0.0615
     65 H         8.643942   -3.007816   -2.474722 H        1 UNL1     0.0622
     66 H         2.510425   4.776608   -2.992353 H        1 UNL1     0.0645
     67 H         0.81451   3.507505   -3.108354 H        1 UNL1     0.0362
     68 H         0.070976   4.23239   -1.175048 H        1 UNL1     0.0741
     69 H         0.116903   2.848849   1.085503 H        1 UNL1     0.0359
     70 H         1.979709   1.949731   1.934653 H        1 UNL1     0.0600
     71 H         1.491151   -0.092264   1.390338 H        1 UNL1     0.0348
     72 H         3.802505   -0.09396   0.622426 H        1 UNL1     0.0602
     73 H         3.909602   2.88613   -3.43207 H        1 UNL1     0.0628
     74 H         5.28875   3.917994   -0.88377 H        1 UNL1     0.1022
     75 H         9.399386   -7.01355   -2.085971 H        1 UNL1     0.0279
     76 H         8.368292   -7.098587   -3.458164 H        1 UNL1     0.0279
     77 H         10.144045   -6.785956   -3.613916 H        1 UNL1     0.0279
     78 H         8.390398   -5.262242   -5.370586 H        1 UNL1     0.1553
     79 H         6.625892   -5.048366   -4.4948 H        1 UNL1     0.1484
     80 H         3.466682   -2.982722   -4.932979 H        1 UNL1     0.0317
     81 H         4.838482   -2.864863   -6.025773 H        1 UNL1     0.0317
     82 H         5.197585   -5.346124   -5.935816 H        1 UNL1     0.0428
     83 H         3.588668   -4.914518   -6.47136 H        1 UNL1     0.0428
     84 H         3.990429   -6.084481   -2.400375 H        1 UNL1     0.0428
     85 H         5.431108   -6.119314   -3.355548 H        1 UNL1     0.0428
     86 H         5.098644   -4.133085   -1.882724 H        1 UNL1     0.0317
     87 H         3.652576   -3.675548   -2.658545 H        1 UNL1     0.0317
     88 H         3.983347   -7.446629   -5.446052 H        1 UNL1     0.0429
     89 H         3.018482   -7.574596   -3.973336 H        1 UNL1     0.0429
     90 H         1.102741   -7.322558   -5.20991 H        1 UNL1     0.0308
     91 H         0.564592   -5.133901   -5.58321 H        1 UNL1     0.0233
     92 H         2.289149   -4.692139   -5.504182 H        1 UNL1     0.0233
     93 H         1.553898   -5.105972   -7.03805 H        1 UNL1     0.0233
     94 H         1.373878   -7.273245   -7.758015 H        1 UNL1     0.0233
     95 H         3.113611   -7.370511   -7.444651 H        1 UNL1     0.0233
     96 H         2.035147   -8.666788   -6.878461 H        1 UNL1     0.0233
     97 H         10.564428   3.329151   -5.044041 H        1 UNL1     0.0280
     98 H         10.898702   2.593368   -6.588085 H        1 UNL1     0.0280
     99 H         9.340593   3.431188   -6.323355 H        1 UNL1     0.0280
     100 H         10.660899   -0.258488   -7.527642 H        1 UNL1     0.2922
     101 H         6.320334   -1.960062   1.871895 H        1 UNL1     0.0236
     102 H         4.65717   -1.395772   2.297951 H        1 UNL1     0.0236
     103 H         5.880783   -0.283873   1.766962 H        1 UNL1     0.0236
     104 H         2.12919   -2.499788   0.536705 H        1 UNL1     0.2098
     105 H         0.790365   0.87462   -1.273244 H        1 UNL1     0.0234
     106 H         0.947012   -0.894022   -1.077124 H        1 UNL1     0.0234
     107 H         0.0   -0.0   0.0 H        1 UNL1     0.0234
     108 H         3.984966   1.640767   0.617915 H        1 UNL1     0.2098
     109 H         1.022833   1.403725   -3.695574 H        1 UNL1     0.0234
     110 H         2.767392   1.70577   -3.416134 H        1 UNL1     0.0234
     111 H         1.816185   0.901526   -2.217284 H        1 UNL1     0.0234
     112 H         -1.074792   -0.664797   -0.792516 H        1 UNL1     0.0342
     113 H         0.220942   0.335587   -1.539874 H        1 UNL1     0.0342
     114 H         0.067539   0.239782   0.216617 H        1 UNL1     0.0342
     115 H         0.987285   4.656701   2.040512 H        1 UNL1     0.0234
     116 H         2.169271   4.970158   0.765585 H        1 UNL1     0.0234
     117 H         0.436112   5.301975   0.566327 H        1 UNL1     0.0234
     118 H         4.670122   2.231242   -4.759193 H        1 UNL1     0.0309
     119 H         5.418677   3.844953   -4.968152 H        1 UNL1     0.0309
     120 H         6.051253   2.426642   -5.774625 H        1 UNL1     0.0309
     121 H         4.346983   5.717855   -1.919755 H        1 UNL1     0.0524
     122 H         3.799653   6.521427   -0.442745 H        1 UNL1     0.0524
     123 H         4.772582   5.033509   -0.32763 H        1 UNL1     0.0524
@<TRIPOS>BOND
     1     1     2    1
     2     1    42    1
     3     2     3    2
     4     3     4    1
     5     4     5    2
     6     5     7    1
     7     6    75    1
     8     6    76    1
     9     6    77    1
    10     7     9   am
    11     9    10    1
    12    10    11    2
    13    10    43    1
    14    11    14    1
    15    11    15    1
    16    12    13   ar
    17    12    27   ar
    18    12    43    1
    19    13    14    1
    20    13    30   ar
    21    14    17    2
    22    15    16    1
    23    16    17    1
    24    16    18    1
    25    16    22    1
    26    18    19    1
    27    19    20    1
    28    20    21    1
    29    21    22    1
    30    23    24    1
    31    23    88    1
    32    23    89    1
    33    24    25    1
    34    24    26    1
    35    24    90    1
    36    25    91    1
    37    25    92    1
    38    25    93    1
    39    26    94    1
    40    26    95    1
    41    26    96    1
    42    27    28   ar
    43    28    29   ar
    44    29    30   ar
    45    29    31    1
    46    30    33    1
    47    31    32    1
    48    32    33    1
    49    32    35    1
    50    34    97    1
    51    34    98    1
    52    34    99    1
    53    35    61    1
    54    36    37    1
    55    36    60    1
    56    37    38    1
    57    38    39    1
    58    39    40    1
    59    40    41    1
    60    41    42    1
    61    45   100    1
    62    47   101    1
    63    47   102    1
    64    47   103    1
    65    48   104    1
    66    49   105    1
    67    49   106    1
    68    49   107    1
    69    50   108    1
    70    51    59    1
    71    52   109    1
    72    52   110    1
    73    52   111    1
    74    53    54    1
    75    54    55    2
    76    54    56    1
    77    56   112    1
    78    56   113    1
    79    56   114    1
    80    57   115    1
    81    57   116    1
    82    57   117    1
    83    58   118    1
    84    58   119    1
    85    58   120    1
    86    59   121    1
    87    59   122    1
    88    59   123    1
    89    60    61    2
    90     1    47    1
    91     1    62    1
    92     2    63    1
    93     3    64    1
    94     4    65    1
    95     5     6    1
    96     7     8    2
    97     9    78    1
    98    15    79    1
    99    18    80    1
   100    18    81    1
   101    19    82    1
   102    19    83    1
   103    20    23    1
   104    21    84    1
   105    21    85    1
   106    22    86    1
   107    22    87    1
   108    27    45    1
   109    28    34    1
   110    32    58    1
   111    33    46    2
   112    36    51    1
   113    36    66    1
   114    37    52    1
   115    37    67    1
   116    38    53    1
   117    38    68    1
   118    42    48    1
   119    42    72    1
   120    43    44    2
   121    60    73    1
   122    61    74    1
   123    39    69    1
   124    39    57    1
   125    40    70    1
   126    40    50    1
   127    41    71    1
   128    41    49    1
