@<TRIPOS>MOLECULE
*****
 123 128 0 0 0
SMALL
GASTEIGER

@<TRIPOS>ATOM
     1 C         -1.592505   3.709236   -0.947245 C.3        1 UNL1     0.0009
     2 C         -3.375625   4.213797   -0.893048 C.2        1 UNL1     -0.0787
     3 C         -4.63175   4.462383   -1.568623 C.2        1 UNL1     -0.0649
     4 C         -6.128672   4.842976   -0.875277 C.2        1 UNL1     -0.0542
     5 C         -7.530547   4.864481   -1.078654 C.2        1 UNL1     0.0115
     6 C         -8.648225   4.701283   -2.145184 C.3        1 UNL1     -0.0348
     7 C         -8.499158   4.967736   0.197324 C.2        1 UNL1     0.2441
     8 O         -9.049924   6.007448   0.532257 O.2        1 UNL1     -0.2702
     9 N         -8.879384   3.732216   0.749656 N.am        1 UNL1     -0.2772
     10 C         -7.958884   3.321245   1.686194 C.2        1 UNL1     0.1049
     11 C         -6.886786   2.707992   1.218488 C.2        1 UNL1     0.0801
     12 C         -6.683818   4.104174   3.69083 C.ar        1 UNL1     0.0753
     13 C         -5.509948   3.604803   3.041779 C.ar        1 UNL1     0.0305
     14 C         -5.593473   2.772982   1.843384 C.2        1 UNL1     0.0924
     15 N         -6.634122   2.226996   -0.010874 N.pl3        1 UNL1     -0.3170
     16 C         -5.394481   1.49896   0.048346 C.3        1 UNL1     0.1275
     17 N         -4.628162   2.148649   1.174572 N.2        1 UNL1     -0.2557
     18 C         -5.722368   0.085358   0.519433 C.3        1 UNL1     0.0016
     19 C         -6.757328   -0.512602   -0.420191 C.3        1 UNL1     0.0026
     20 N         -6.212113   -0.523596   -1.770616 N.3        1 UNL1     -0.3018
     21 C         -5.809   0.785268   -2.28902 C.3        1 UNL1     0.0026
     22 C         -4.765849   1.365507   -1.332436 C.3        1 UNL1     0.0016
     23 C         -6.987264   -1.338129   -2.685121 C.3        1 UNL1     0.0012
     24 C         -6.823525   -2.828918   -2.349719 C.3        1 UNL1     -0.0339
     25 C         -6.862642   -3.698138   -3.617388 C.3        1 UNL1     -0.0615
     26 C         -5.544098   -3.04782   -1.561095 C.3        1 UNL1     -0.0615
     27 C         -6.602849   4.793731   4.898337 C.ar        1 UNL1     0.1347
     28 C         -5.412628   5.009704   5.569737 C.ar        1 UNL1     0.0342
     29 C         -4.265154   4.552038   4.887821 C.ar        1 UNL1     0.1435
     30 C         -4.327639   3.891555   3.66019 C.ar        1 UNL1     0.0774
     31 O         -3.042605   4.589779   5.461369 O.3        1 UNL1     -0.4436
     32 C         -2.260989   3.647627   4.711504 C.3        1 UNL1     0.3143
     33 C         -2.954097   3.537948   3.368454 C.2        1 UNL1     0.2504
     34 C         -5.274344   5.514544   6.979033 C.3        1 UNL1     -0.0327
     35 O         -0.982363   4.248957   4.473241 O.2        1 UNL1     -0.4528
     36 C         1.497918   1.38154   4.288276 C.3        1 UNL1     0.0854
     37 C         1.502035   0.127946   3.331193 C.3        1 UNL1     0.0236
     38 C         2.849516   -0.071864   2.484956 C.3        1 UNL1     0.1131
     39 C         3.44247   1.13766   1.655664 C.3        1 UNL1     0.0200
     40 C         2.438117   2.113779   0.749626 C.3        1 UNL1     0.0661
     41 C         1.270792   1.58088   -0.359869 C.3        1 UNL1     0.0091
     42 C         -0.345751   2.310392   -0.828914 C.3        1 UNL1     0.0661
     43 C         -7.998635   3.785656   3.080861 C.2        1 UNL1     0.2131
     44 O         -9.047676   3.796383   3.699033 O.2        1 UNL1     -0.2851
     45 O         -7.788055   5.286291   5.440656 O.3        1 UNL1     -0.5056
     46 O         -2.475695   3.246177   2.295208 O.2        1 UNL1     -0.2836
     47 C         -0.725483   4.855   -1.53502 C.3        1 UNL1     -0.0566
     48 O         -0.11335   2.173256   -2.287097 O.3        1 UNL1     -0.3909
     49 C         1.043778   0.099577   -0.155664 C.3        1 UNL1     -0.0577
     50 O         1.911687   3.161321   1.539088 O.3        1 UNL1     -0.3910
     51 O         2.591999   2.260781   4.15654 O.3        1 UNL1     -0.3753
     52 C         0.088555   -0.14156   2.719319 C.3        1 UNL1     -0.0564
     53 O         2.971817   -1.432106   1.862774 O.3        1 UNL1     -0.4608
     54 C         3.504957   -1.696839   0.628429 C.2        1 UNL1     0.3042
     55 O         2.895128   -1.947193   -0.41045 O.2        1 UNL1     -0.2512
     56 C         5.003666   -1.602306   0.587807 C.3        1 UNL1     0.0332
     57 C         4.550994   1.847764   2.564015 C.3        1 UNL1     -0.0567
     58 C         -2.383331   2.293378   5.4481 C.3        1 UNL1     0.0210
     59 C         3.526687   2.22017   5.233839 C.3        1 UNL1     0.0372
     60 C         0.266934   2.21582   4.226507 C.2        1 UNL1     -0.0208
     61 C         0.122337   3.54047   4.170469 C.2        1 UNL1     0.0882
     62 H         -1.549934   3.812676   0.143718 H        1 UNL1     0.0365
     63 H         -3.480261   4.478831   0.161124 H        1 UNL1     0.0576
     64 H         -4.759562   4.256036   -2.633608 H        1 UNL1     0.0615
     65 H         -5.87873   5.106588   0.155994 H        1 UNL1     0.0622
     66 H         1.52271   0.955565   5.301181 H        1 UNL1     0.0645
     67 H         1.544951   -0.73436   4.019049 H        1 UNL1     0.0362
     68 H         3.560925   -0.237688   3.308316 H        1 UNL1     0.0741
     69 H         4.127241   0.748589   0.913962 H        1 UNL1     0.0359
     70 H         3.18647   2.606416   0.099751 H        1 UNL1     0.0600
     71 H         1.873005   1.582022   -1.289544 H        1 UNL1     0.0348
     72 H         0.230232   3.12338   -0.3635 H        1 UNL1     0.0602
     73 H         -0.583238   1.594494   4.362187 H        1 UNL1     0.0628
     74 H         0.934406   4.241726   3.975482 H        1 UNL1     0.1022
     75 H         -8.404959   5.291492   -3.061432 H        1 UNL1     0.0279
     76 H         -8.795956   3.700113   -2.543809 H        1 UNL1     0.0279
     77 H         -9.599452   5.160075   -1.837975 H        1 UNL1     0.0279
     78 H         -8.90874   3.025054   0.018126 H        1 UNL1     0.1553
     79 H         -7.346586   2.033136   -0.690394 H        1 UNL1     0.1484
     80 H         -4.801391   -0.509966   0.531943 H        1 UNL1     0.0317
     81 H         -6.104168   0.093702   1.545985 H        1 UNL1     0.0317
     82 H         -7.708566   0.038387   -0.381851 H        1 UNL1     0.0428
     83 H         -6.97798   -1.519666   -0.064967 H        1 UNL1     0.0428
     84 H         -5.329921   0.739149   -3.271958 H        1 UNL1     0.0428
     85 H         -6.672264   1.447196   -2.443762 H        1 UNL1     0.0428
     86 H         -4.398493   2.255079   -1.809615 H        1 UNL1     0.0317
     87 H         -3.884627   0.713281   -1.298583 H        1 UNL1     0.0317
     88 H         -8.045185   -1.068177   -2.57013 H        1 UNL1     0.0429
     89 H         -6.71509   -1.134853   -3.728852 H        1 UNL1     0.0429
     90 H         -7.640356   -3.139965   -1.687714 H        1 UNL1     0.0308
     91 H         -6.232237   -3.278428   -4.407031 H        1 UNL1     0.0233
     92 H         -6.532497   -4.716221   -3.398026 H        1 UNL1     0.0233
     93 H         -7.87424   -3.787279   -4.031584 H        1 UNL1     0.0233
     94 H         -5.218481   -4.089787   -1.651174 H        1 UNL1     0.0233
     95 H         -4.748021   -2.410502   -1.956127 H        1 UNL1     0.0233
     96 H         -5.685035   -2.820251   -0.500757 H        1 UNL1     0.0233
     97 H         -4.737504   4.814173   7.611895 H        1 UNL1     0.0280
     98 H         -4.711764   6.45601   7.028032 H        1 UNL1     0.0280
     99 H         -6.274683   5.675795   7.413102 H        1 UNL1     0.0280
     100 H         -8.417755   4.625733   5.670357 H        1 UNL1     0.2922
     101 H         -0.178183   5.350296   -0.733272 H        1 UNL1     0.0236
     102 H         -1.297986   5.560663   -2.136072 H        1 UNL1     0.0236
     103 H         0.055914   4.476108   -2.214764 H        1 UNL1     0.0236
     104 H         0.827906   2.374477   -2.455968 H        1 UNL1     0.2098
     105 H         1.313336   -0.517895   -1.008822 H        1 UNL1     0.0234
     106 H         1.479588   -0.306317   0.75716 H        1 UNL1     0.0234
     107 H         0.0   0.0   0.0 H        1 UNL1     0.0234
     108 H         1.170667   3.556203   1.040365 H        1 UNL1     0.2098
     109 H         -0.66627   -0.347938   3.490914 H        1 UNL1     0.0234
     110 H         -0.261778   0.669289   2.071605 H        1 UNL1     0.0234
     111 H         0.092495   -1.022833   2.064119 H        1 UNL1     0.0234
     112 H         5.361897   -1.803446   -0.426372 H        1 UNL1     0.0342
     113 H         5.363059   -0.638464   0.945144 H        1 UNL1     0.0342
     114 H         5.414379   -2.37699   1.249882 H        1 UNL1     0.0342
     115 H         5.371559   2.259125   1.960157 H        1 UNL1     0.0234
     116 H         4.163415   2.657011   3.186069 H        1 UNL1     0.0234
     117 H         5.098214   1.147454   3.218276 H        1 UNL1     0.0234
     118 H         -1.435534   1.996662   5.930434 H        1 UNL1     0.0309
     119 H         -3.184142   2.280964   6.194257 H        1 UNL1     0.0309
     120 H         -2.591103   1.461361   4.766422 H        1 UNL1     0.0309
     121 H         4.025886   3.187928   5.273867 H        1 UNL1     0.0524
     122 H         3.035559   2.059434   6.208003 H        1 UNL1     0.0524
     123 H         4.253872   1.429758   5.070917 H        1 UNL1     0.0524
@<TRIPOS>BOND
     1     1     2    1
     2     1    42    1
     3     2     3    2
     4     3     4    1
     5     4     5    2
     6     5     7    1
     7     6    75    1
     8     6    76    1
     9     6    77    1
    10     7     9   am
    11     9    10    1
    12    10    11    2
    13    10    43    1
    14    11    14    1
    15    11    15    1
    16    12    13   ar
    17    12    27   ar
    18    12    43    1
    19    13    14    1
    20    13    30   ar
    21    14    17    2
    22    15    16    1
    23    16    17    1
    24    16    18    1
    25    16    22    1
    26    18    19    1
    27    19    20    1
    28    20    21    1
    29    21    22    1
    30    23    24    1
    31    23    88    1
    32    23    89    1
    33    24    25    1
    34    24    26    1
    35    24    90    1
    36    25    91    1
    37    25    92    1
    38    25    93    1
    39    26    94    1
    40    26    95    1
    41    26    96    1
    42    27    28   ar
    43    28    29   ar
    44    29    30   ar
    45    29    31    1
    46    30    33    1
    47    31    32    1
    48    32    33    1
    49    32    35    1
    50    34    97    1
    51    34    98    1
    52    34    99    1
    53    35    61    1
    54    36    37    1
    55    36    60    1
    56    37    38    1
    57    38    39    1
    58    39    40    1
    59    40    41    1
    60    41    42    1
    61    45   100    1
    62    47   101    1
    63    47   102    1
    64    47   103    1
    65    48   104    1
    66    49   105    1
    67    49   106    1
    68    49   107    1
    69    50   108    1
    70    51    59    1
    71    52   109    1
    72    52   110    1
    73    52   111    1
    74    53    54    1
    75    54    55    2
    76    54    56    1
    77    56   112    1
    78    56   113    1
    79    56   114    1
    80    57   115    1
    81    57   116    1
    82    57   117    1
    83    58   118    1
    84    58   119    1
    85    58   120    1
    86    59   121    1
    87    59   122    1
    88    59   123    1
    89    60    61    2
    90     1    47    1
    91     1    62    1
    92     2    63    1
    93     3    64    1
    94     4    65    1
    95     5     6    1
    96     7     8    2
    97     9    78    1
    98    15    79    1
    99    18    80    1
   100    18    81    1
   101    19    82    1
   102    19    83    1
   103    20    23    1
   104    21    84    1
   105    21    85    1
   106    22    86    1
   107    22    87    1
   108    27    45    1
   109    28    34    1
   110    32    58    1
   111    33    46    2
   112    36    51    1
   113    36    66    1
   114    37    52    1
   115    37    67    1
   116    38    53    1
   117    38    68    1
   118    42    48    1
   119    42    72    1
   120    43    44    2
   121    60    73    1
   122    61    74    1
   123    39    69    1
   124    39    57    1
   125    40    70    1
   126    40    50    1
   127    41    71    1
   128    41    49    1
