@<TRIPOS>MOLECULE
*****
 123 128 0 0 0
SMALL
GASTEIGER

@<TRIPOS>ATOM
     1 C         5.306898   -0.884978   1.032181 C.3        1 UNL1     0.0009
     2 C         7.000607   -1.075922   0.302847 C.2        1 UNL1     -0.0787
     3 C         8.10061   -1.919594   -0.114596 C.2        1 UNL1     -0.0649
     4 C         9.517455   -1.4598   -0.919268 C.2        1 UNL1     -0.0542
     5 C         10.600463   -1.911339   -1.713173 C.2        1 UNL1     0.0115
     6 C         11.317146   -3.177475   -2.257771 C.3        1 UNL1     -0.0348
     7 C         11.454471   -0.836783   -2.545632 C.2        1 UNL1     0.2441
     8 O         12.554155   -0.438699   -2.186813 O.2        1 UNL1     -0.2702
     9 N         10.975086   -0.580183   -3.841972 N.am        1 UNL1     -0.2772
     10 C         10.037926   0.427001   -3.816779 C.2        1 UNL1     0.1049
     11 C         8.806222   0.068243   -3.503059 C.2        1 UNL1     0.0801
     12 C         9.629464   2.734963   -2.94282 C.ar        1 UNL1     0.0753
     13 C         8.386191   2.23854   -2.436418 C.ar        1 UNL1     0.0305
     14 C         7.876533   0.922532   -2.815132 C.2        1 UNL1     0.0924
     15 N         8.261832   -1.156706   -3.404739 N.pl3        1 UNL1     -0.3170
     16 C         6.846345   -0.993704   -3.204543 C.3        1 UNL1     0.1275
     17 N         6.712748   0.347498   -2.525535 N.2        1 UNL1     -0.2557
     18 C         6.21002   -0.836146   -4.582211 C.3        1 UNL1     0.0016
     19 C         6.589442   -2.037422   -5.433425 C.3        1 UNL1     0.0026
     20 N         6.116944   -3.246509   -4.773211 N.3        1 UNL1     -0.3018
     21 C         6.626862   -3.453681   -3.416217 C.3        1 UNL1     0.0026
     22 C         6.230401   -2.237459   -2.577458 C.3        1 UNL1     0.0016
     23 C         6.159204   -4.412102   -5.633591 C.3        1 UNL1     0.0012
     24 C         7.54078   -5.081743   -5.56587 C.3        1 UNL1     -0.0339
     25 C         8.672681   -4.042575   -5.620511 C.3        1 UNL1     -0.0615
     26 C         7.638407   -5.949845   -4.323434 C.3        1 UNL1     -0.0615
     27 C         10.050381   4.035351   -2.674603 C.ar        1 UNL1     0.1347
     28 C         9.298054   4.941125   -1.948224 C.ar        1 UNL1     0.0342
     29 C         8.100588   4.415043   -1.418623 C.ar        1 UNL1     0.1435
     30 C         7.683383   3.103473   -1.648721 C.ar        1 UNL1     0.0774
     31 O         7.206013   5.201984   -0.78186 O.3        1 UNL1     -0.4436
     32 C         5.97711   4.461069   -0.823271 C.3        1 UNL1     0.3143
     33 C         6.392468   3.014393   -0.998821 C.2        1 UNL1     0.2504
     34 C         9.563789   6.416341   -1.833231 C.3        1 UNL1     -0.0327
     35 O         5.371887   4.567208   0.471214 O.2        1 UNL1     -0.4528
     36 C         1.626645   4.361763   -0.111057 C.3        1 UNL1     0.0854
     37 C         0.788225   3.224495   -0.811911 C.3        1 UNL1     0.0236
     38 C         -0.403526   2.619589   0.074409 C.3        1 UNL1     0.1131
     39 C         -0.113709   2.129603   1.550278 C.3        1 UNL1     0.0200
     40 C         1.250466   1.231744   1.889857 C.3        1 UNL1     0.0661
     41 C         1.767243   -0.147443   1.048195 C.3        1 UNL1     0.0091
     42 C         3.458823   -0.776469   0.719127 C.3        1 UNL1     0.0661
     43 C         10.413977   1.848444   -3.837742 C.2        1 UNL1     0.2131
     44 O         11.247707   2.255616   -4.626311 O.2        1 UNL1     -0.2851
     45 O         11.294296   4.425186   -3.166682 O.3        1 UNL1     -0.5056
     46 O         5.801248   2.014086   -0.658676 O.2        1 UNL1     -0.2836
     47 C         5.353886   -1.101356   2.56872 C.3        1 UNL1     -0.0566
     48 O         3.142048   -2.16878   1.119425 O.3        1 UNL1     -0.3909
     49 C         1.000894   -0.241142   -0.252353 C.3        1 UNL1     -0.0577
     50 O         2.352249   2.075766   2.157108 O.3        1 UNL1     -0.3910
     51 O         1.344612   4.583895   1.252228 O.3        1 UNL1     -0.3753
     52 C         1.679779   2.326216   -1.730158 C.3        1 UNL1     -0.0564
     53 O         -1.389292   1.810414   -0.716683 O.3        1 UNL1     -0.4608
     54 C         -2.237052   0.864929   -0.201619 C.2        1 UNL1     0.3042
     55 O         -1.969643   -0.008028   0.62317 O.2        1 UNL1     -0.2512
     56 C         -3.650556   0.992435   -0.694025 C.3        1 UNL1     0.0332
     57 C         -0.478947   3.333045   2.538459 C.3        1 UNL1     -0.0567
     58 C         5.230163   4.923593   -2.095935 C.3        1 UNL1     0.0210
     59 C         1.740337   5.862932   1.745515 C.3        1 UNL1     0.0372
     60 C         3.103372   4.215792   -0.225644 C.2        1 UNL1     -0.0208
     61 C         4.059946   4.358118   0.692753 C.2        1 UNL1     0.0882
     62 H         5.378257   0.196712   0.866151 H        1 UNL1     0.0365
     63 H         7.287096   -0.029742   0.176745 H        1 UNL1     0.0576
     64 H         8.029759   -3.009171   -0.084464 H        1 UNL1     0.0615
     65 H         9.530007   -0.370721   -0.823175 H        1 UNL1     0.0622
     66 H         1.370228   5.275378   -0.665679 H        1 UNL1     0.0645
     67 H         0.22745   3.753162   -1.602228 H        1 UNL1     0.0362
     68 H         -1.027237   3.519976   0.183089 H        1 UNL1     0.0741
     69 H         -0.914117   1.471957   1.86214 H        1 UNL1     0.0359
     70 H         0.968541   0.823311   2.87918 H        1 UNL1     0.0600
     71 H         1.273352   -0.936559   1.648466 H        1 UNL1     0.0348
     72 H         3.552902   -0.082695   1.567149 H        1 UNL1     0.0602
     73 H         3.36329   4.08587   -1.246826 H        1 UNL1     0.0628
     74 H         3.878362   4.437062   1.765149 H        1 UNL1     0.1022
     75 H         10.927666   -4.095268   -1.754785 H        1 UNL1     0.0279
     76 H         11.166169   -3.405341   -3.310554 H        1 UNL1     0.0279
     77 H         12.381523   -3.214887   -1.983172 H        1 UNL1     0.0279
     78 H         10.519798   -1.413125   -4.209392 H        1 UNL1     0.1553
     79 H         8.661222   -1.978613   -3.819335 H        1 UNL1     0.1484
     80 H         5.122477   -0.754709   -4.466513 H        1 UNL1     0.0317
     81 H         6.544117   0.088979   -5.064055 H        1 UNL1     0.0317
     82 H         7.673616   -2.082664   -5.613509 H        1 UNL1     0.0428
     83 H         6.126864   -1.903797   -6.411799 H        1 UNL1     0.0428
     84 H         6.195423   -4.325019   -2.913783 H        1 UNL1     0.0428
     85 H         7.70777   -3.650991   -3.411391 H        1 UNL1     0.0428
     86 H         6.500941   -2.481953   -1.567003 H        1 UNL1     0.0317
     87 H         5.137717   -2.152266   -2.534101 H        1 UNL1     0.0317
     88 H         5.406353   -5.127233   -5.277082 H        1 UNL1     0.0429
     89 H         5.894188   -4.154629   -6.667152 H        1 UNL1     0.0429
     90 H         7.651489   -5.763746   -6.417239 H        1 UNL1     0.0308
     91 H         8.292401   -3.054372   -5.896092 H        1 UNL1     0.0233
     92 H         9.18177   -3.974833   -4.656225 H        1 UNL1     0.0233
     93 H         9.443682   -4.30312   -6.355705 H        1 UNL1     0.0233
     94 H         8.31852   -5.493336   -3.596192 H        1 UNL1     0.0233
     95 H         6.655094   -6.041961   -3.853782 H        1 UNL1     0.0233
     96 H         8.009965   -6.949959   -4.563609 H        1 UNL1     0.0233
     97 H         10.446752   6.626032   -1.236879 H        1 UNL1     0.0280
     98 H         9.744043   6.881818   -2.811033 H        1 UNL1     0.0280
     99 H         8.700637   6.910895   -1.358384 H        1 UNL1     0.0280
     100 H         11.277237   4.777925   -4.038981 H        1 UNL1     0.2922
     101 H         4.344428   -1.058246   2.977123 H        1 UNL1     0.0236
     102 H         6.0306   -0.415765   3.077647 H        1 UNL1     0.0236
     103 H         5.720522   -2.106958   2.834308 H        1 UNL1     0.0236
     104 H         3.30952   -2.245105   2.079164 H        1 UNL1     0.2098
     105 H         1.328543   0.457558   -1.018039 H        1 UNL1     0.0234
     106 H         0.926511   -1.246927   -0.665622 H        1 UNL1     0.0234
     107 H         -0.0   0.0   0.0 H        1 UNL1     0.0234
     108 H         3.155693   1.52121   2.130406 H        1 UNL1     0.2098
     109 H         2.489534   1.835533   -1.172271 H        1 UNL1     0.0234
     110 H         1.10715   1.573577   -2.282765 H        1 UNL1     0.0234
     111 H         2.17359   2.914299   -2.515177 H        1 UNL1     0.0234
     112 H         -4.194028   1.71815   -0.081391 H        1 UNL1     0.0342
     113 H         -3.694262   1.260768   -1.748506 H        1 UNL1     0.0342
     114 H         -4.143578   0.017438   -0.577944 H        1 UNL1     0.0342
     115 H         -0.941169   2.972497   3.46773 H        1 UNL1     0.0234
     116 H         0.374897   3.95432   2.815979 H        1 UNL1     0.0234
     117 H         -1.270808   3.996364   2.149995 H        1 UNL1     0.0234
     118 H         4.696362   4.092128   -2.588609 H        1 UNL1     0.0309
     119 H         4.525667   5.739986   -1.907809 H        1 UNL1     0.0309
     120 H         5.910668   5.283823   -2.8752 H        1 UNL1     0.0309
     121 H         1.945666   5.756518   2.81035 H        1 UNL1     0.0524
     122 H         2.662416   6.229807   1.264671 H        1 UNL1     0.0524
     123 H         0.947494   6.588516   1.587337 H        1 UNL1     0.0524
@<TRIPOS>BOND
     1     1     2    1
     2     1    42    1
     3     2     3    2
     4     3     4    1
     5     4     5    2
     6     5     7    1
     7     6    75    1
     8     6    76    1
     9     6    77    1
    10     7     9   am
    11     9    10    1
    12    10    11    2
    13    10    43    1
    14    11    14    1
    15    11    15    1
    16    12    13   ar
    17    12    27   ar
    18    12    43    1
    19    13    14    1
    20    13    30   ar
    21    14    17    2
    22    15    16    1
    23    16    17    1
    24    16    18    1
    25    16    22    1
    26    18    19    1
    27    19    20    1
    28    20    21    1
    29    21    22    1
    30    23    24    1
    31    23    88    1
    32    23    89    1
    33    24    25    1
    34    24    26    1
    35    24    90    1
    36    25    91    1
    37    25    92    1
    38    25    93    1
    39    26    94    1
    40    26    95    1
    41    26    96    1
    42    27    28   ar
    43    28    29   ar
    44    29    30   ar
    45    29    31    1
    46    30    33    1
    47    31    32    1
    48    32    33    1
    49    32    35    1
    50    34    97    1
    51    34    98    1
    52    34    99    1
    53    35    61    1
    54    36    37    1
    55    36    60    1
    56    37    38    1
    57    38    39    1
    58    39    40    1
    59    40    41    1
    60    41    42    1
    61    45   100    1
    62    47   101    1
    63    47   102    1
    64    47   103    1
    65    48   104    1
    66    49   105    1
    67    49   106    1
    68    49   107    1
    69    50   108    1
    70    51    59    1
    71    52   109    1
    72    52   110    1
    73    52   111    1
    74    53    54    1
    75    54    55    2
    76    54    56    1
    77    56   112    1
    78    56   113    1
    79    56   114    1
    80    57   115    1
    81    57   116    1
    82    57   117    1
    83    58   118    1
    84    58   119    1
    85    58   120    1
    86    59   121    1
    87    59   122    1
    88    59   123    1
    89    60    61    2
    90     1    47    1
    91     1    62    1
    92     2    63    1
    93     3    64    1
    94     4    65    1
    95     5     6    1
    96     7     8    2
    97     9    78    1
    98    15    79    1
    99    18    80    1
   100    18    81    1
   101    19    82    1
   102    19    83    1
   103    20    23    1
   104    21    84    1
   105    21    85    1
   106    22    86    1
   107    22    87    1
   108    27    45    1
   109    28    34    1
   110    32    58    1
   111    33    46    2
   112    36    51    1
   113    36    66    1
   114    37    52    1
   115    37    67    1
   116    38    53    1
   117    38    68    1
   118    42    48    1
   119    42    72    1
   120    43    44    2
   121    60    73    1
   122    61    74    1
   123    39    69    1
   124    39    57    1
   125    40    70    1
   126    40    50    1
   127    41    71    1
   128    41    49    1
