@<TRIPOS>MOLECULE
*****
 123 128 0 0 0
SMALL
GASTEIGER

@<TRIPOS>ATOM
     1 C         3.276588   4.208504   -1.245688 C.3        1 UNL1     0.0009
     2 C         3.4309   5.82124   -2.146969 C.2        1 UNL1     -0.0787
     3 C         3.887921   6.58226   -3.290659 C.2        1 UNL1     -0.0649
     4 C         3.591174   8.21156   -3.642339 C.2        1 UNL1     -0.0542
     5 C         3.5663   9.193021   -4.663707 C.2        1 UNL1     0.0115
     6 C         3.952443   9.479379   -6.14094 C.3        1 UNL1     -0.0348
     7 C         2.760548   10.558068   -4.409934 C.2        1 UNL1     0.2441
     8 O         3.310926   11.611916   -4.121816 O.2        1 UNL1     -0.2702
     9 N         1.409009   10.524536   -4.795124 N.am        1 UNL1     -0.2772
     10 C         0.626618   10.06184   -3.762119 C.2        1 UNL1     0.1049
     11 C         0.5536   8.749825   -3.629808 C.2        1 UNL1     0.0801
     12 C         0.178333   10.371649   -1.320728 C.ar        1 UNL1     0.0753
     13 C         0.316761   8.952601   -1.195239 C.ar        1 UNL1     0.0305
     14 C         0.378396   8.08315   -2.367974 C.2        1 UNL1     0.0924
     15 N         0.949614   7.774034   -4.464992 N.pl3        1 UNL1     -0.3170
     16 C         0.486782   6.521756   -3.928484 C.3        1 UNL1     0.1275
     17 N         0.405921   6.755359   -2.439654 N.2        1 UNL1     -0.2557
     18 C         -0.949502   6.328714   -4.405478 C.3        1 UNL1     0.0016
     19 C         -0.972601   6.408157   -5.923617 C.3        1 UNL1     0.0026
     20 N         -0.098987   5.37344   -6.459516 N.3        1 UNL1     -0.3018
     21 C         1.292404   5.439142   -6.007759 C.3        1 UNL1     0.0026
     22 C         1.292248   5.352981   -4.480516 C.3        1 UNL1     0.0016
     23 C         -0.277135   5.166491   -7.88292 C.3        1 UNL1     0.0012
     24 C         -1.634092   4.502518   -8.16499 C.3        1 UNL1     -0.0339
     25 C         -2.675283   5.529976   -8.638602 C.3        1 UNL1     -0.0615
     26 C         -1.463827   3.375719   -9.169039 C.3        1 UNL1     -0.0615
     27 C         -0.001065   11.181102   -0.201477 C.ar        1 UNL1     0.1347
     28 C         -0.097771   10.684035   1.08601 C.ar        1 UNL1     0.0342
     29 C         0.090276   9.289415   1.190113 C.ar        1 UNL1     0.1435
     30 C         0.306918   8.470263   0.081385 C.ar        1 UNL1     0.0774
     31 O         -0.08359   8.640388   2.362094 O.3        1 UNL1     -0.4436
     32 C         -0.278663   7.267433   1.990861 C.3        1 UNL1     0.3143
     33 C         0.367081   7.130274   0.62689 C.2        1 UNL1     0.2504
     34 C         -0.538014   11.456166   2.298486 C.3        1 UNL1     -0.0327
     35 O         0.489336   6.467529   2.898376 O.2        1 UNL1     -0.4528
     36 C         -1.362935   3.168187   3.200897 C.3        1 UNL1     0.0854
     37 C         -1.769049   2.14628   2.070278 C.3        1 UNL1     0.0236
     38 C         -1.255018   0.644705   2.300035 C.3        1 UNL1     0.1131
     39 C         0.268888   0.378392   2.630276 C.3        1 UNL1     0.0200
     40 C         1.467624   1.18121   1.793046 C.3        1 UNL1     0.0661
     41 C         1.583049   1.313908   0.105836 C.3        1 UNL1     0.0091
     42 C         2.250953   2.66613   -0.938579 C.3        1 UNL1     0.0661
     43 C         0.142471   10.94367   -2.689584 C.2        1 UNL1     0.2131
     44 O         -0.347053   12.02686   -2.953784 O.2        1 UNL1     -0.2851
     45 O         -0.081528   12.556927   -0.40658 O.3        1 UNL1     -0.5056
     46 O         0.843982   6.142212   0.114884 O.2        1 UNL1     -0.2836
     47 C         4.63627   3.814637   -0.608414 C.3        1 UNL1     -0.0566
     48 O         3.053774   1.761143   -1.796246 O.3        1 UNL1     -0.3909
     49 C         0.267043   0.891154   -0.508087 C.3        1 UNL1     -0.0577
     50 O         1.751672   2.427463   2.396282 O.3        1 UNL1     -0.3910
     51 O         -0.462515   2.686061   4.172612 O.3        1 UNL1     -0.3753
     52 C         -1.776804   2.815099   0.656923 C.3        1 UNL1     -0.0564
     53 O         -1.934022   -0.363769   1.420114 O.3        1 UNL1     -0.4608
     54 C         -1.439356   -1.601104   1.100364 C.2        1 UNL1     0.3042
     55 O         -0.950668   -1.955886   0.02838 O.2        1 UNL1     -0.2512
     56 C         -1.473285   -2.575958   2.242827 C.3        1 UNL1     0.0332
     57 C         0.407832   0.280947   4.220676 C.3        1 UNL1     -0.0567
     58 C         -1.804899   7.066989   1.842684 C.3        1 UNL1     0.0210
     59 C         -0.554289   3.325828   5.444674 C.3        1 UNL1     0.0372
     60 C         -0.813942   4.462091   2.711428 C.2        1 UNL1     -0.0208
     61 C         0.2453   5.161722   3.120412 C.2        1 UNL1     0.0882
     62 H         2.702082   4.721665   -0.465098 H        1 UNL1     0.0365
     63 H         2.988507   6.504449   -1.418969 H        1 UNL1     0.0576
     64 H         4.355684   6.097843   -4.150686 H        1 UNL1     0.0615
     65 H         3.203269   8.614497   -2.702842 H        1 UNL1     0.0622
     66 H         -2.308822   3.413296   3.704153 H        1 UNL1     0.0645
     67 H         -2.859217   2.026711   2.195957 H        1 UNL1     0.0362
     68 H         -1.800559   0.403025   3.224966 H        1 UNL1     0.0741
     69 H         0.492667   -0.660368   2.427033 H        1 UNL1     0.0359
     70 H         2.337039   0.54568   2.048546 H        1 UNL1     0.0600
     71 H         2.21803   0.433401   -0.114309 H        1 UNL1     0.0348
     72 H         2.676505   2.818793   0.063876 H        1 UNL1     0.0602
     73 H         -1.4851   4.880681   2.003207 H        1 UNL1     0.0628
     74 H         1.010795   4.782149   3.798039 H        1 UNL1     0.1022
     75 H         4.359504   8.559134   -6.625175 H        1 UNL1     0.0279
     76 H         3.140551   9.756391   -6.809644 H        1 UNL1     0.0279
     77 H         4.805554   10.167607   -6.231746 H        1 UNL1     0.0279
     78 H         1.292281   9.884744   -5.578142 H        1 UNL1     0.1553
     79 H         1.124872   7.914994   -5.442922 H        1 UNL1     0.1484
     80 H         -1.317118   5.358701   -4.049529 H        1 UNL1     0.0317
     81 H         -1.609764   7.090478   -3.977202 H        1 UNL1     0.0317
     82 H         -0.674237   7.403729   -6.283794 H        1 UNL1     0.0428
     83 H         -2.006186   6.269754   -6.242358 H        1 UNL1     0.0428
     84 H         1.907971   4.605867   -6.360664 H        1 UNL1     0.0428
     85 H         1.805385   6.331436   -6.39244 H        1 UNL1     0.0428
     86 H         2.324531   5.269826   -4.195095 H        1 UNL1     0.0317
     87 H         0.86225   4.396443   -4.159218 H        1 UNL1     0.0317
     88 H         -0.2589   6.147432   -8.375581 H        1 UNL1     0.0429
     89 H         0.547147   4.57843   -8.306617 H        1 UNL1     0.0429
     90 H         -2.001509   4.031464   -7.245573 H        1 UNL1     0.0308
     91 H         -2.333277   6.059518   -9.532873 H        1 UNL1     0.0233
     92 H         -3.629148   5.042473   -8.853289 H        1 UNL1     0.0233
     93 H         -2.885638   6.292127   -7.878528 H        1 UNL1     0.0233
     94 H         -2.440415   3.060118   -9.551802 H        1 UNL1     0.0233
     95 H         -0.86408   3.718254   -10.016939 H        1 UNL1     0.0233
     96 H         -0.973364   2.509106   -8.716936 H        1 UNL1     0.0233
     97 H         -0.647738   10.818015   3.17024 H        1 UNL1     0.0280
     98 H         0.18711   12.230167   2.581988 H        1 UNL1     0.0280
     99 H         -1.509558   11.93654   2.097395 H        1 UNL1     0.0280
     100 H         -0.809446   12.974377   0.019441 H        1 UNL1     0.2922
     101 H         4.500462   2.952385   0.044068 H        1 UNL1     0.0236
     102 H         5.125227   4.6424   -0.095859 H        1 UNL1     0.0236
     103 H         5.36682   3.481289   -1.364303 H        1 UNL1     0.0236
     104 H         3.928793   1.654329   -1.374462 H        1 UNL1     0.2098
     105 H         -0.541234   1.605638   -0.373874 H        1 UNL1     0.0234
     106 H         0.329516   0.583074   -1.551692 H        1 UNL1     0.0234
     107 H         0.0   -0.0   0.0 H        1 UNL1     0.0234
     108 H         0.971609   2.999429   2.261654 H        1 UNL1     0.2098
     109 H         -0.797213   3.235973   0.390507 H        1 UNL1     0.0234
     110 H         -2.113633   2.139785   -0.136954 H        1 UNL1     0.0234
     111 H         -2.483536   3.654319   0.610175 H        1 UNL1     0.0234
     112 H         -1.046843   -3.533236   1.928007 H        1 UNL1     0.0342
     113 H         -0.962395   -2.19169   3.124401 H        1 UNL1     0.0342
     114 H         -2.523533   -2.748537   2.515518 H        1 UNL1     0.0342
     115 H         -0.2948   -0.447591   4.648143 H        1 UNL1     0.0234
     116 H         1.408931   0.011609   4.563175 H        1 UNL1     0.0234
     117 H         0.104717   1.202921   4.746059 H        1 UNL1     0.0234
     118 H         -2.294122   6.875518   2.813769 H        1 UNL1     0.0309
     119 H         -2.30293   7.908356   1.350475 H        1 UNL1     0.0309
     120 H         -2.056928   6.178554   1.253387 H        1 UNL1     0.0309
     121 H         0.400137   3.188783   5.952262 H        1 UNL1     0.0524
     122 H         -0.730121   4.410809   5.355582 H        1 UNL1     0.0524
     123 H         -1.356657   2.885493   6.029827 H        1 UNL1     0.0524
@<TRIPOS>BOND
     1     1     2    1
     2     1    42    1
     3     2     3    2
     4     3     4    1
     5     4     5    2
     6     5     7    1
     7     6    75    1
     8     6    76    1
     9     6    77    1
    10     7     9   am
    11     9    10    1
    12    10    11    2
    13    10    43    1
    14    11    14    1
    15    11    15    1
    16    12    13   ar
    17    12    27   ar
    18    12    43    1
    19    13    14    1
    20    13    30   ar
    21    14    17    2
    22    15    16    1
    23    16    17    1
    24    16    18    1
    25    16    22    1
    26    18    19    1
    27    19    20    1
    28    20    21    1
    29    21    22    1
    30    23    24    1
    31    23    88    1
    32    23    89    1
    33    24    25    1
    34    24    26    1
    35    24    90    1
    36    25    91    1
    37    25    92    1
    38    25    93    1
    39    26    94    1
    40    26    95    1
    41    26    96    1
    42    27    28   ar
    43    28    29   ar
    44    29    30   ar
    45    29    31    1
    46    30    33    1
    47    31    32    1
    48    32    33    1
    49    32    35    1
    50    34    97    1
    51    34    98    1
    52    34    99    1
    53    35    61    1
    54    36    37    1
    55    36    60    1
    56    37    38    1
    57    38    39    1
    58    39    40    1
    59    40    41    1
    60    41    42    1
    61    45   100    1
    62    47   101    1
    63    47   102    1
    64    47   103    1
    65    48   104    1
    66    49   105    1
    67    49   106    1
    68    49   107    1
    69    50   108    1
    70    51    59    1
    71    52   109    1
    72    52   110    1
    73    52   111    1
    74    53    54    1
    75    54    55    2
    76    54    56    1
    77    56   112    1
    78    56   113    1
    79    56   114    1
    80    57   115    1
    81    57   116    1
    82    57   117    1
    83    58   118    1
    84    58   119    1
    85    58   120    1
    86    59   121    1
    87    59   122    1
    88    59   123    1
    89    60    61    2
    90     1    47    1
    91     1    62    1
    92     2    63    1
    93     3    64    1
    94     4    65    1
    95     5     6    1
    96     7     8    2
    97     9    78    1
    98    15    79    1
    99    18    80    1
   100    18    81    1
   101    19    82    1
   102    19    83    1
   103    20    23    1
   104    21    84    1
   105    21    85    1
   106    22    86    1
   107    22    87    1
   108    27    45    1
   109    28    34    1
   110    32    58    1
   111    33    46    2
   112    36    51    1
   113    36    66    1
   114    37    52    1
   115    37    67    1
   116    38    53    1
   117    38    68    1
   118    42    48    1
   119    42    72    1
   120    43    44    2
   121    60    73    1
   122    61    74    1
   123    39    69    1
   124    39    57    1
   125    40    70    1
   126    40    50    1
   127    41    71    1
   128    41    49    1
