@<TRIPOS>MOLECULE
*****
 123 128 0 0 0
SMALL
GASTEIGER

@<TRIPOS>ATOM
     1 C         4.996591   2.049227   -0.444894 C.3        1 UNL1     0.0009
     2 C         6.629903   1.827746   -1.293586 C.2        1 UNL1     -0.0787
     3 C         8.032093   1.470521   -1.245633 C.2        1 UNL1     -0.0649
     4 C         9.117391   1.339727   -2.53845 C.2        1 UNL1     -0.0542
     5 C         10.349221   0.788091   -2.968996 C.2        1 UNL1     0.0115
     6 C         11.631659   0.052406   -2.492084 C.3        1 UNL1     -0.0348
     7 C         10.65023   0.693611   -4.54299 C.2        1 UNL1     0.2441
     8 O         11.386039   1.476529   -5.127927 O.2        1 UNL1     -0.2702
     9 N         10.222957   -0.49821   -5.153851 N.am        1 UNL1     -0.2772
     10 C         8.918672   -0.380576   -5.576137 C.2        1 UNL1     0.1049
     11 C         7.989498   -0.592981   -4.661948 C.2        1 UNL1     0.0801
     12 C         7.374565   1.116895   -6.853106 C.ar        1 UNL1     0.0753
     13 C         6.48457   1.021141   -5.736258 C.ar        1 UNL1     0.0305
     14 C         6.70688   0.056839   -4.661199 C.2        1 UNL1     0.0924
     15 N         8.095628   -1.112372   -3.426838 N.pl3        1 UNL1     -0.3170
     16 C         6.765062   -1.287901   -2.90815 C.3        1 UNL1     0.1275
     17 N         5.943159   -0.236185   -3.612488 N.2        1 UNL1     -0.2557
     18 C         6.25576   -2.633521   -3.415712 C.3        1 UNL1     0.0016
     19 C         7.239887   -3.714756   -2.998561 C.3        1 UNL1     0.0026
     20 N         7.351536   -3.710662   -1.546478 N.3        1 UNL1     -0.3018
     21 C         7.776299   -2.438259   -0.959166 C.3        1 UNL1     0.0026
     22 C         6.771216   -1.367532   -1.38724 C.3        1 UNL1     0.0016
     23 C         8.025255   -4.885117   -1.029366 C.3        1 UNL1     0.0012
     24 C         9.546467   -4.667821   -1.008126 C.3        1 UNL1     -0.0339
     25 C         10.305193   -5.97421   -1.294026 C.3        1 UNL1     -0.0615
     26 C         9.929844   -3.572756   -1.988245 C.3        1 UNL1     -0.0615
     27 C         7.092126   1.951963   -7.931534 C.ar        1 UNL1     0.1347
     28 C         5.936016   2.706236   -8.023906 C.ar        1 UNL1     0.0342
     29 C         5.098199   2.633485   -6.890798 C.ar        1 UNL1     0.1435
     30 C         5.385897   1.82911   -5.787426 C.ar        1 UNL1     0.0774
     31 O         3.883131   3.223673   -6.873686 O.3        1 UNL1     -0.4436
     32 C         3.171644   2.558413   -5.819129 C.3        1 UNL1     0.3143
     33 C         4.245647   1.995264   -4.910506 C.2        1 UNL1     0.2504
     34 C         5.447606   3.424577   -9.250912 C.3        1 UNL1     -0.0327
     35 O         2.478598   3.565431   -5.071563 O.2        1 UNL1     -0.4528
     36 C         -0.637443   1.885157   -3.702237 C.3        1 UNL1     0.0854
     37 C         -0.759472   0.605687   -2.788132 C.3        1 UNL1     0.0236
     38 C         -1.585822   0.821148   -1.430756 C.3        1 UNL1     0.1131
     39 C         -1.227374   2.031173   -0.477014 C.3        1 UNL1     0.0200
     40 C         0.364533   2.400314   -0.142343 C.3        1 UNL1     0.0661
     41 C         1.553235   1.302473   0.366913 C.3        1 UNL1     0.0091
     42 C         3.360244   1.274081   0.051773 C.3        1 UNL1     0.0661
     43 C         8.564338   0.230028   -6.866084 C.2        1 UNL1     0.2131
     44 O         9.165003   -0.075537   -7.880268 O.2        1 UNL1     -0.2851
     45 O         8.032718   2.021602   -8.957143 O.3        1 UNL1     -0.5056
     46 O         4.181493   1.758155   -3.724961 O.2        1 UNL1     -0.2836
     47 C         5.006228   3.342218   0.414213 C.3        1 UNL1     -0.0566
     48 O         3.718804   1.026745   1.469297 O.3        1 UNL1     -0.3909
     49 C         1.044668   -0.104678   0.146052 C.3        1 UNL1     -0.0577
     50 O         0.895617   3.265918   -1.125402 O.3        1 UNL1     -0.3910
     51 O         -1.110527   3.089497   -3.142606 O.3        1 UNL1     -0.3753
     52 C         0.531368   -0.274937   -2.844543 C.3        1 UNL1     -0.0564
     53 O         -1.986308   -0.461053   -0.761505 O.3        1 UNL1     -0.4608
     54 C         -2.080816   -1.6826   -1.375362 C.2        1 UNL1     0.3042
     55 O         -3.105892   -2.261039   -1.733782 O.2        1 UNL1     -0.2512
     56 C         -0.749143   -2.313444   -1.667587 C.3        1 UNL1     0.0332
     57 C         -2.212251   3.238419   -0.838607 C.3        1 UNL1     -0.0567
     58 C         2.40983   1.384907   -6.477956 C.3        1 UNL1     0.0210
     59 C         -1.424506   4.108404   -4.090821 C.3        1 UNL1     0.0372
     60 C         0.730785   2.160426   -4.219286 C.2        1 UNL1     -0.0208
     61 C         1.415542   3.302887   -4.287364 C.2        1 UNL1     0.0882
     62 H         4.552847   2.318666   -1.410919 H        1 UNL1     0.0365
     63 H         6.387345   2.182135   -2.2976 H        1 UNL1     0.0576
     64 H         8.492059   1.078203   -0.335894 H        1 UNL1     0.0615
     65 H         8.595692   1.826481   -3.366933 H        1 UNL1     0.0622
     66 H         -1.251885   1.654177   -4.583802 H        1 UNL1     0.0645
     67 H         -1.433291   -0.063006   -3.351495 H        1 UNL1     0.0362
     68 H         -2.572704   1.064806   -1.852912 H        1 UNL1     0.0741
     69 H         -1.636392   1.833428   0.504826 H        1 UNL1     0.0359
     70 H         0.228008   3.043553   0.747974 H        1 UNL1     0.0600
     71 H         1.44938   1.400878   1.465315 H        1 UNL1     0.0348
     72 H         3.033604   2.304817   -0.148739 H        1 UNL1     0.0602
     73 H         1.110036   1.285802   -4.686672 H        1 UNL1     0.0628
     74 H         1.124626   4.226958   -3.786665 H        1 UNL1     0.1022
     75 H         11.689422   0.048247   -1.37688 H        1 UNL1     0.0279
     76 H         11.702449   -1.005612   -2.734272 H        1 UNL1     0.0279
     77 H         12.55371   0.591331   -2.754921 H        1 UNL1     0.0279
     78 H         10.259187   -1.260098   -4.47984 H        1 UNL1     0.1553
     79 H         8.87608   -1.663101   -3.119388 H        1 UNL1     0.1484
     80 H         5.257906   -2.818093   -2.999795 H        1 UNL1     0.0317
     81 H         6.144354   -2.624029   -4.505276 H        1 UNL1     0.0317
     82 H         8.223061   -3.574855   -3.471541 H        1 UNL1     0.0428
     83 H         6.858423   -4.665536   -3.372129 H        1 UNL1     0.0428
     84 H         7.775109   -2.438225   0.135279 H        1 UNL1     0.0428
     85 H         8.813509   -2.191428   -1.224845 H        1 UNL1     0.0428
     86 H         7.035735   -0.484832   -0.835098 H        1 UNL1     0.0317
     87 H         5.77345   -1.616182   -1.005493 H        1 UNL1     0.0317
     88 H         7.681443   -5.050561   5.9e-05 H        1 UNL1     0.0429
     89 H         7.761345   -5.781891   -1.604624 H        1 UNL1     0.0429
     90 H         9.843139   -4.301174   -0.018294 H        1 UNL1     0.0308
     91 H         9.69592   -6.667609   -1.881467 H        1 UNL1     0.0233
     92 H         11.23527   -5.771358   -1.83014 H        1 UNL1     0.0233
     93 H         10.590424   -6.501111   -0.375411 H        1 UNL1     0.0233
     94 H         11.019006   -3.46175   -2.023482 H        1 UNL1     0.0233
     95 H         9.584821   -3.832907   -2.992856 H        1 UNL1     0.0233
     96 H         9.493546   -2.611345   -1.70311 H        1 UNL1     0.0233
     97 H         6.06414   4.285523   -9.491513 H        1 UNL1     0.0280
     98 H         5.466992   2.782777   -10.141403 H        1 UNL1     0.0280
     99 H         4.414944   3.773877   -9.08753 H        1 UNL1     0.0280
     100 H         7.924983   1.374412   -9.6318 H        1 UNL1     0.2922
     101 H         4.433157   4.121471   -0.087795 H        1 UNL1     0.0236
     102 H         6.009975   3.676265   0.674766 H        1 UNL1     0.0236
     103 H         4.497247   3.200093   1.382165 H        1 UNL1     0.0236
     104 H         3.796865   1.895598   1.909719 H        1 UNL1     0.2098
     105 H         1.45546   -0.598172   -0.731174 H        1 UNL1     0.0234
     106 H         1.118399   -0.757293   1.015871 H        1 UNL1     0.0234
     107 H         -0.0   0.0   0.0 H        1 UNL1     0.0234
     108 H         0.543772   2.975001   -1.988733 H        1 UNL1     0.2098
     109 H         1.424537   0.274645   -2.516032 H        1 UNL1     0.0234
     110 H         0.442943   -1.205349   -2.273354 H        1 UNL1     0.0234
     111 H         0.748201   -0.610191   -3.867546 H        1 UNL1     0.0234
     112 H         -0.894737   -3.27221   -2.174456 H        1 UNL1     0.0342
     113 H         -0.104238   -1.657404   -2.250298 H        1 UNL1     0.0342
     114 H         -0.245876   -2.511153   -0.711136 H        1 UNL1     0.0342
     115 H         -1.828227   4.201601   -0.475296 H        1 UNL1     0.0234
     116 H         -2.409591   3.34556   -1.907077 H        1 UNL1     0.0234
     117 H         -3.183149   3.185533   -0.31659 H        1 UNL1     0.0234
     118 H         2.387922   0.489967   -5.83173 H        1 UNL1     0.0309
     119 H         1.385915   1.644574   -6.764963 H        1 UNL1     0.0309
     120 H         2.898639   1.025796   -7.390212 H        1 UNL1     0.0309
     121 H         -1.326273   5.069457   -3.586754 H        1 UNL1     0.0524
     122 H         -0.730545   4.110573   -4.947822 H        1 UNL1     0.0524
     123 H         -2.438572   3.979968   -4.458609 H        1 UNL1     0.0524
@<TRIPOS>BOND
     1     1     2    1
     2     1    42    1
     3     2     3    2
     4     3     4    1
     5     4     5    2
     6     5     7    1
     7     6    75    1
     8     6    76    1
     9     6    77    1
    10     7     9   am
    11     9    10    1
    12    10    11    2
    13    10    43    1
    14    11    14    1
    15    11    15    1
    16    12    13   ar
    17    12    27   ar
    18    12    43    1
    19    13    14    1
    20    13    30   ar
    21    14    17    2
    22    15    16    1
    23    16    17    1
    24    16    18    1
    25    16    22    1
    26    18    19    1
    27    19    20    1
    28    20    21    1
    29    21    22    1
    30    23    24    1
    31    23    88    1
    32    23    89    1
    33    24    25    1
    34    24    26    1
    35    24    90    1
    36    25    91    1
    37    25    92    1
    38    25    93    1
    39    26    94    1
    40    26    95    1
    41    26    96    1
    42    27    28   ar
    43    28    29   ar
    44    29    30   ar
    45    29    31    1
    46    30    33    1
    47    31    32    1
    48    32    33    1
    49    32    35    1
    50    34    97    1
    51    34    98    1
    52    34    99    1
    53    35    61    1
    54    36    37    1
    55    36    60    1
    56    37    38    1
    57    38    39    1
    58    39    40    1
    59    40    41    1
    60    41    42    1
    61    45   100    1
    62    47   101    1
    63    47   102    1
    64    47   103    1
    65    48   104    1
    66    49   105    1
    67    49   106    1
    68    49   107    1
    69    50   108    1
    70    51    59    1
    71    52   109    1
    72    52   110    1
    73    52   111    1
    74    53    54    1
    75    54    55    2
    76    54    56    1
    77    56   112    1
    78    56   113    1
    79    56   114    1
    80    57   115    1
    81    57   116    1
    82    57   117    1
    83    58   118    1
    84    58   119    1
    85    58   120    1
    86    59   121    1
    87    59   122    1
    88    59   123    1
    89    60    61    2
    90     1    47    1
    91     1    62    1
    92     2    63    1
    93     3    64    1
    94     4    65    1
    95     5     6    1
    96     7     8    2
    97     9    78    1
    98    15    79    1
    99    18    80    1
   100    18    81    1
   101    19    82    1
   102    19    83    1
   103    20    23    1
   104    21    84    1
   105    21    85    1
   106    22    86    1
   107    22    87    1
   108    27    45    1
   109    28    34    1
   110    32    58    1
   111    33    46    2
   112    36    51    1
   113    36    66    1
   114    37    52    1
   115    37    67    1
   116    38    53    1
   117    38    68    1
   118    42    48    1
   119    42    72    1
   120    43    44    2
   121    60    73    1
   122    61    74    1
   123    39    69    1
   124    39    57    1
   125    40    70    1
   126    40    50    1
   127    41    71    1
   128    41    49    1
