@<TRIPOS>MOLECULE
*****
 123 128 0 0 0
SMALL
GASTEIGER

@<TRIPOS>ATOM
     1 C         5.183986   1.672239   0.573743 C.3        1 UNL1     0.0009
     2 C         6.647535   2.452058   -0.255076 C.2        1 UNL1     -0.0787
     3 C         7.939217   2.330987   -0.897686 C.2        1 UNL1     -0.0649
     4 C         8.848598   3.548771   -1.643599 C.2        1 UNL1     -0.0542
     5 C         9.889269   3.821103   -2.565509 C.2        1 UNL1     0.0115
     6 C         11.022726   3.174181   -3.408177 C.3        1 UNL1     -0.0348
     7 C         10.017947   5.299664   -3.1773 C.2        1 UNL1     0.2441
     8 O         10.847596   6.110541   -2.789114 O.2        1 UNL1     -0.2702
     9 N         9.2916   5.512157   -4.361959 N.am        1 UNL1     -0.2772
     10 C         8.009669   5.919927   -4.072651 C.2        1 UNL1     0.1049
     11 C         7.144104   4.963006   -3.791012 C.2        1 UNL1     0.0801
     12 C         6.711568   7.553268   -2.692627 C.ar        1 UNL1     0.0753
     13 C         5.927584   6.439324   -2.253188 C.ar        1 UNL1     0.0305
     14 C         6.035759   5.128762   -2.890194 C.2        1 UNL1     0.0924
     15 N         7.249095   3.631529   -3.94159 N.pl3        1 UNL1     -0.3170
     16 C         5.96489   3.053382   -3.646942 C.3        1 UNL1     0.1275
     17 N         5.326155   4.023128   -2.682921 N.2        1 UNL1     -0.2557
     18 C         5.135303   3.119094   -4.925679 C.3        1 UNL1     0.0016
     19 C         5.899249   2.417901   -6.037572 C.3        1 UNL1     0.0026
     20 N         6.141427   1.037799   -5.640465 N.3        1 UNL1     -0.3018
     21 C         6.880419   0.872018   -4.387159 C.3        1 UNL1     0.0026
     22 C         6.092848   1.579964   -3.283329 C.3        1 UNL1     0.0016
     23 C         6.592674   0.206006   -6.738254 C.3        1 UNL1     0.0012
     24 C         5.45091   -0.030758   -7.73929 C.3        1 UNL1     -0.0339
     25 C         5.512238   0.966041   -8.908345 C.3        1 UNL1     -0.0615
     26 C         5.47699   -1.468379   -8.228518 C.3        1 UNL1     -0.0615
     27 C         6.516957   8.826634   -2.162737 C.ar        1 UNL1     0.1347
     28 C         5.545485   9.115603   -1.221042 C.ar        1 UNL1     0.0342
     29 C         4.818655   7.994315   -0.767617 C.ar        1 UNL1     0.1435
     30 C         5.027226   6.706563   -1.263009 C.ar        1 UNL1     0.0774
     31 O         3.764745   8.128038   0.066889 O.3        1 UNL1     -0.4436
     32 C         3.026845   6.905667   -0.082061 C.3        1 UNL1     0.3143
     33 C         4.033953   5.894558   -0.591576 C.2        1 UNL1     0.2504
     34 C         5.112004   10.490564   -0.794805 C.3        1 UNL1     -0.0327
     35 O         2.63657   6.48115   1.229702 O.2        1 UNL1     -0.4528
     36 C         -0.628287   4.596672   0.78524 C.3        1 UNL1     0.0854
     37 C         -0.937137   3.336388   -0.111318 C.3        1 UNL1     0.0236
     38 C         -1.57066   2.088634   0.671946 C.3        1 UNL1     0.1131
     39 C         -0.876017   1.553255   1.988422 C.3        1 UNL1     0.0200
     40 C         0.781773   1.382602   2.059474 C.3        1 UNL1     0.0661
     41 C         1.749546   0.593352   0.911385 C.3        1 UNL1     0.0091
     42 C         3.472101   0.926979   0.375755 C.3        1 UNL1     0.0661
     43 C         7.677784   7.325455   -3.795708 C.2        1 UNL1     0.2131
     44 O         8.103907   8.213698   -4.511377 O.2        1 UNL1     -0.2851
     45 O         7.352903   9.84691   -2.611815 O.3        1 UNL1     -0.5056
     46 O         4.02919   4.691594   -0.454796 O.2        1 UNL1     -0.2836
     47 C         5.548487   1.244023   2.020723 C.3        1 UNL1     -0.0566
     48 O         3.89747   -0.490373   0.472146 O.3        1 UNL1     -0.3909
     49 C         0.933714   0.367262   -0.34193 C.3        1 UNL1     -0.0577
     50 O         1.393615   2.593134   2.456947 O.3        1 UNL1     -0.3910
     51 O         -0.779597   4.415932   2.175157 O.3        1 UNL1     -0.3753
     52 C         0.12474   3.154195   -1.244531 C.3        1 UNL1     -0.0564
     53 O         -2.173291   1.054436   -0.233371 O.3        1 UNL1     -0.4608
     54 C         -2.421106   -0.250413   0.104101 C.2        1 UNL1     0.3042
     55 O         -1.855992   -1.254025   -0.328618 O.2        1 UNL1     -0.2512
     56 C         -3.472066   -0.407797   1.165905 C.3        1 UNL1     0.0332
     57 C         -1.608656   2.239523   3.233594 C.3        1 UNL1     -0.0567
     58 C         1.974669   7.161655   -1.18611 C.3        1 UNL1     0.0210
     59 C         -1.118521   5.597384   2.899841 C.3        1 UNL1     0.0372
     60 C         0.714034   5.204241   0.575007 C.2        1 UNL1     -0.0208
     61 C         1.618188   5.62988   1.45823 C.2        1 UNL1     0.0882
     62 H         4.721764   2.663984   0.647931 H        1 UNL1     0.0365
     63 H         6.395683   3.510314   -0.159504 H        1 UNL1     0.0576
     64 H         8.385783   1.356166   -1.106035 H        1 UNL1     0.0615
     65 H         8.369622   4.47323   -1.309771 H        1 UNL1     0.0622
     66 H         -1.355857   5.352896   0.458417 H        1 UNL1     0.0645
     67 H         -1.787012   3.65583   -0.739195 H        1 UNL1     0.0362
     68 H         -2.516925   2.541676   1.004898 H        1 UNL1     0.0741
     69 H         -1.226378   0.548331   2.182802 H        1 UNL1     0.0359
     70 H         0.867974   0.725102   2.945659 H        1 UNL1     0.0600
     71 H         1.769984   -0.42619   1.343904 H        1 UNL1     0.0348
     72 H         3.356601   1.421684   1.351072 H        1 UNL1     0.0602
     73 H         0.853054   5.394431   -0.460246 H        1 UNL1     0.0628
     74 H         1.578702   5.424914   2.528588 H        1 UNL1     0.1022
     75 H         11.047562   2.069139   -3.249118 H        1 UNL1     0.0279
     76 H         10.929258   3.253245   -4.488956 H        1 UNL1     0.0279
     77 H         12.02649   3.465164   -3.065414 H        1 UNL1     0.0279
     78 H         9.225449   4.640615   -4.883606 H        1 UNL1     0.1553
     79 H         7.918417   3.190326   -4.545146 H        1 UNL1     0.1484
     80 H         4.163355   2.643869   -4.746112 H        1 UNL1     0.0317
     81 H         4.929401   4.157801   -5.205578 H        1 UNL1     0.0317
     82 H         6.842148   2.933684   -6.271712 H        1 UNL1     0.0428
     83 H         5.290707   2.478068   -6.940405 H        1 UNL1     0.0428
     84 H         6.979299   -0.171072   -4.070936 H        1 UNL1     0.0428
     85 H         7.917695   1.223765   -4.474628 H        1 UNL1     0.0428
     86 H         6.589409   1.326345   -2.365129 H        1 UNL1     0.0317
     87 H         5.104153   1.117963   -3.173178 H        1 UNL1     0.0317
     88 H         7.406055   0.732923   -7.254067 H        1 UNL1     0.0429
     89 H         7.004505   -0.74447   -6.37526 H        1 UNL1     0.0429
     90 H         4.490642   0.093161   -7.22476 H        1 UNL1     0.0308
     91 H         6.470891   0.906091   -9.432266 H        1 UNL1     0.0233
     92 H         4.703203   0.778989   -9.618333 H        1 UNL1     0.0233
     93 H         5.394814   2.005157   -8.577761 H        1 UNL1     0.0233
     94 H         4.793525   -1.591544   -9.075596 H        1 UNL1     0.0233
     95 H         6.483588   -1.72975   -8.56676 H        1 UNL1     0.0233
     96 H         5.178066   -2.163943   -7.439338 H        1 UNL1     0.0233
     97 H         4.305178   10.456634   -0.068781 H        1 UNL1     0.0280
     98 H         5.925082   11.050506   -0.314571 H        1 UNL1     0.0280
     99 H         4.7623   11.056325   -1.673848 H        1 UNL1     0.0280
     100 H         6.903156   10.602916   -2.946187 H        1 UNL1     0.2922
     101 H         4.670422   0.826155   2.512703 H        1 UNL1     0.0236
     102 H         6.001375   2.045317   2.603651 H        1 UNL1     0.0236
     103 H         6.292238   0.429916   2.036751 H        1 UNL1     0.0236
     104 H         4.299681   -0.618326   1.353523 H        1 UNL1     0.2098
     105 H         0.744938   1.26632   -0.923195 H        1 UNL1     0.0234
     106 H         1.302389   -0.429612   -0.987683 H        1 UNL1     0.0234
     107 H         0.0   -0.0   0.0 H        1 UNL1     0.0234
     108 H         1.217345   3.25082   1.756842 H        1 UNL1     0.2098
     109 H         1.140909   3.027027   -0.845857 H        1 UNL1     0.0234
     110 H         -0.108444   2.327308   -1.923963 H        1 UNL1     0.0234
     111 H         0.170883   4.033267   -1.901074 H        1 UNL1     0.0234
     112 H         -3.61504   -1.468464   1.393702 H        1 UNL1     0.0342
     113 H         -3.232512   0.156304   2.066042 H        1 UNL1     0.0342
     114 H         -4.420069   -0.01742   0.770858 H        1 UNL1     0.0342
     115 H         -2.682465   2.007785   3.254097 H        1 UNL1     0.0234
     116 H         -1.19341   1.958005   4.203319 H        1 UNL1     0.0234
     117 H         -1.629493   3.341579   3.179014 H        1 UNL1     0.0234
     118 H         1.074097   7.664328   -0.792033 H        1 UNL1     0.0309
     119 H         2.367754   7.739646   -2.028496 H        1 UNL1     0.0309
     120 H         1.57934   6.233592   -1.613333 H        1 UNL1     0.0309
     121 H         -0.301048   6.306894   2.77458 H        1 UNL1     0.0524
     122 H         -2.034888   6.075507   2.515514 H        1 UNL1     0.0524
     123 H         -1.256252   5.366217   3.952308 H        1 UNL1     0.0524
@<TRIPOS>BOND
     1     1     2    1
     2     1    42    1
     3     2     3    2
     4     3     4    1
     5     4     5    2
     6     5     7    1
     7     6    75    1
     8     6    76    1
     9     6    77    1
    10     7     9   am
    11     9    10    1
    12    10    11    2
    13    10    43    1
    14    11    14    1
    15    11    15    1
    16    12    13   ar
    17    12    27   ar
    18    12    43    1
    19    13    14    1
    20    13    30   ar
    21    14    17    2
    22    15    16    1
    23    16    17    1
    24    16    18    1
    25    16    22    1
    26    18    19    1
    27    19    20    1
    28    20    21    1
    29    21    22    1
    30    23    24    1
    31    23    88    1
    32    23    89    1
    33    24    25    1
    34    24    26    1
    35    24    90    1
    36    25    91    1
    37    25    92    1
    38    25    93    1
    39    26    94    1
    40    26    95    1
    41    26    96    1
    42    27    28   ar
    43    28    29   ar
    44    29    30   ar
    45    29    31    1
    46    30    33    1
    47    31    32    1
    48    32    33    1
    49    32    35    1
    50    34    97    1
    51    34    98    1
    52    34    99    1
    53    35    61    1
    54    36    37    1
    55    36    60    1
    56    37    38    1
    57    38    39    1
    58    39    40    1
    59    40    41    1
    60    41    42    1
    61    45   100    1
    62    47   101    1
    63    47   102    1
    64    47   103    1
    65    48   104    1
    66    49   105    1
    67    49   106    1
    68    49   107    1
    69    50   108    1
    70    51    59    1
    71    52   109    1
    72    52   110    1
    73    52   111    1
    74    53    54    1
    75    54    55    2
    76    54    56    1
    77    56   112    1
    78    56   113    1
    79    56   114    1
    80    57   115    1
    81    57   116    1
    82    57   117    1
    83    58   118    1
    84    58   119    1
    85    58   120    1
    86    59   121    1
    87    59   122    1
    88    59   123    1
    89    60    61    2
    90     1    47    1
    91     1    62    1
    92     2    63    1
    93     3    64    1
    94     4    65    1
    95     5     6    1
    96     7     8    2
    97     9    78    1
    98    15    79    1
    99    18    80    1
   100    18    81    1
   101    19    82    1
   102    19    83    1
   103    20    23    1
   104    21    84    1
   105    21    85    1
   106    22    86    1
   107    22    87    1
   108    27    45    1
   109    28    34    1
   110    32    58    1
   111    33    46    2
   112    36    51    1
   113    36    66    1
   114    37    52    1
   115    37    67    1
   116    38    53    1
   117    38    68    1
   118    42    48    1
   119    42    72    1
   120    43    44    2
   121    60    73    1
   122    61    74    1
   123    39    69    1
   124    39    57    1
   125    40    70    1
   126    40    50    1
   127    41    71    1
   128    41    49    1
