@<TRIPOS>MOLECULE
*****
 123 128 0 0 0
SMALL
GASTEIGER

@<TRIPOS>ATOM
     1 C         1.59269   -0.339449   -5.028138 C.3        1 UNL1     0.0009
     2 C         1.071938   0.160584   -6.735716 C.2        1 UNL1     -0.0787
     3 C         0.62687   -0.193001   -8.067233 C.2        1 UNL1     -0.0649
     4 C         0.142136   0.846385   -9.312652 C.2        1 UNL1     -0.0542
     5 C         -0.580838   0.945363   -10.526978 C.2        1 UNL1     0.0115
     6 C         -1.294437   0.123167   -11.635171 C.3        1 UNL1     -0.0348
     7 C         -1.029881   2.395937   -11.047731 C.2        1 UNL1     0.2441
     8 O         -0.447518   2.990814   -11.944113 O.2        1 UNL1     -0.2702
     9 N         -2.287936   2.823165   -10.588465 N.am        1 UNL1     -0.2772
     10 C         -2.1632   3.474497   -9.38284 C.2        1 UNL1     0.1049
     11 C         -2.1051   2.706751   -8.309802 C.2        1 UNL1     0.0801
     12 C         -0.857194   5.26366   -8.220696 C.ar        1 UNL1     0.0753
     13 C         -0.645445   4.316572   -7.168652 C.ar        1 UNL1     0.0305
     14 C         -1.373786   3.050768   -7.120596 C.2        1 UNL1     0.0924
     15 N         -2.35715   1.393688   -8.172455 N.pl3        1 UNL1     -0.3170
     16 C         -2.316352   1.082964   -6.768162 C.3        1 UNL1     0.1275
     17 N         -1.378337   2.109273   -6.181185 N.2        1 UNL1     -0.2557
     18 C         -3.696052   1.393981   -6.195974 C.3        1 UNL1     0.0016
     19 C         -4.736166   0.611793   -6.982061 C.3        1 UNL1     0.0026
     20 N         -4.432604   -0.808573   -6.875121 N.3        1 UNL1     -0.3018
     21 C         -3.100848   -1.196755   -7.34428 C.3        1 UNL1     0.0026
     22 C         -2.071685   -0.402549   -6.538083 C.3        1 UNL1     0.0016
     23 C         -5.518589   -1.653228   -7.331012 C.3        1 UNL1     0.0012
     24 C         -5.021671   -2.63957   -8.399637 C.3        1 UNL1     -0.0339
     25 C         -5.553564   -4.059549   -8.145069 C.3        1 UNL1     -0.0615
     26 C         -5.39876   -2.141207   -9.783913 C.3        1 UNL1     -0.0615
     27 C         -0.250873   6.517408   -8.195992 C.ar        1 UNL1     0.1347
     28 C         0.55277   6.950567   -7.156482 C.ar        1 UNL1     0.0342
     29 C         0.78639   5.983494   -6.155804 C.ar        1 UNL1     0.1435
     30 C         0.214862   4.710818   -6.185312 C.ar        1 UNL1     0.0774
     31 O         1.457916   6.288545   -5.023989 O.3        1 UNL1     -0.4436
     32 C         1.087966   5.259222   -4.094201 C.3        1 UNL1     0.3143
     33 C         0.649998   4.089327   -4.951955 C.2        1 UNL1     0.2504
     34 C         1.029595   8.359591   -6.93879 C.3        1 UNL1     -0.0327
     35 O         2.280655   4.852815   -3.411868 O.2        1 UNL1     -0.4528
     36 C         1.172508   3.72569   0.039173 C.3        1 UNL1     0.0854
     37 C         0.129299   2.611381   0.436103 C.3        1 UNL1     0.0236
     38 C         0.690414   1.48259   1.427428 C.3        1 UNL1     0.1131
     39 C         2.044221   0.739448   1.085061 C.3        1 UNL1     0.0200
     40 C         2.353133   0.22007   -0.469692 C.3        1 UNL1     0.0661
     41 C         1.300739   -0.688898   -1.441214 C.3        1 UNL1     0.0091
     42 C         1.068032   -0.695419   -3.260886 C.3        1 UNL1     0.0661
     43 C         -1.814942   4.900423   -9.294491 C.2        1 UNL1     0.2131
     44 O         -2.373762   5.718153   -10.002852 O.2        1 UNL1     -0.2851
     45 O         -0.472575   7.36269   -9.28125 O.3        1 UNL1     -0.5056
     46 O         0.675461   2.908527   -4.685652 O.2        1 UNL1     -0.2836
     47 C         3.033917   -0.915923   -5.050994 C.3        1 UNL1     -0.0566
     48 O         1.100429   -2.173673   -3.374161 O.3        1 UNL1     -0.3909
     49 C         -0.078128   -0.667005   -0.820134 C.3        1 UNL1     -0.0577
     50 O         2.947229   1.250303   -1.233493 O.3        1 UNL1     -0.3910
     51 O         2.500738   3.502503   0.455615 O.3        1 UNL1     -0.3753
     52 C         -0.839312   2.274245   -0.744186 C.3        1 UNL1     -0.0564
     53 O         -0.386117   0.651245   2.061677 O.3        1 UNL1     -0.4608
     54 C         -0.265479   -0.044217   3.236287 C.2        1 UNL1     0.3042
     55 O         0.172742   0.370919   4.308416 O.2        1 UNL1     -0.2512
     56 C         -0.794469   -1.448215   3.160963 C.3        1 UNL1     0.0332
     57 C         3.218947   1.492942   1.866369 C.3        1 UNL1     -0.0567
     58 C         -0.136841   5.792896   -3.315376 C.3        1 UNL1     0.0210
     59 C         2.788042   3.916822   1.790404 C.3        1 UNL1     0.0372
     60 C         1.226347   4.048125   -1.412824 C.2        1 UNL1     -0.0208
     61 C         2.272563   4.22334   -2.221203 C.2        1 UNL1     0.0882
     62 H         1.684141   0.721528   -4.766076 H        1 UNL1     0.0365
     63 H         1.222705   1.241002   -6.68635 H        1 UNL1     0.0576
     64 H         0.402522   -1.226578   -8.340172 H        1 UNL1     0.0615
     65 H         0.480449   1.830529   -8.977261 H        1 UNL1     0.0622
     66 H         0.807409   4.635318   0.536492 H        1 UNL1     0.0645
     67 H         -0.590176   3.137483   1.087357 H        1 UNL1     0.0362
     68 H         0.913683   2.105012   2.307351 H        1 UNL1     0.0741
     69 H         2.091181   -0.178612   1.655472 H        1 UNL1     0.0359
     70 H         3.17915   -0.489902   -0.272982 H        1 UNL1     0.0600
     71 H         1.637616   -1.712714   -1.185732 H        1 UNL1     0.0348
     72 H         2.05464   -0.243468   -3.082954 H        1 UNL1     0.0602
     73 H         0.246086   4.263058   -1.759437 H        1 UNL1     0.0628
     74 H         3.301311   3.971059   -1.961837 H        1 UNL1     0.1022
     75 H         -1.660009   0.795682   -12.448261 H        1 UNL1     0.0279
     76 H         -0.681358   -0.591246   -12.179981 H        1 UNL1     0.0279
     77 H         -2.235035   -0.330052   -11.289383 H        1 UNL1     0.0279
     78 H         -2.889946   2.015988   -10.439721 H        1 UNL1     0.1553
     79 H         -2.888131   0.856398   -8.832994 H        1 UNL1     0.1484
     80 H         -3.711311   1.124516   -5.132996 H        1 UNL1     0.0317
     81 H         -3.909475   2.466891   -6.250443 H        1 UNL1     0.0317
     82 H         -4.775412   0.930041   -8.034245 H        1 UNL1     0.0428
     83 H         -5.712544   0.849625   -6.558772 H        1 UNL1     0.0428
     84 H         -2.868498   -2.253479   -7.179484 H        1 UNL1     0.0428
     85 H         -2.996064   -1.066757   -8.4303 H        1 UNL1     0.0428
     86 H         -1.1148   -0.806495   -6.812288 H        1 UNL1     0.0317
     87 H         -2.156629   -0.651657   -5.47327 H        1 UNL1     0.0317
     88 H         -5.88919   -2.226769   -6.47136 H        1 UNL1     0.0429
     89 H         -6.359311   -1.054747   -7.704886 H        1 UNL1     0.0429
     90 H         -3.925774   -2.668443   -8.379934 H        1 UNL1     0.0308
     91 H         -5.516333   -4.667142   -9.054215 H        1 UNL1     0.0233
     92 H         -4.976279   -4.553293   -7.359849 H        1 UNL1     0.0233
     93 H         -6.596079   -4.06019   -7.804486 H        1 UNL1     0.0233
     94 H         -6.158923   -1.356148   -9.70861 H        1 UNL1     0.0233
     95 H         -4.521885   -1.714989   -10.279283 H        1 UNL1     0.0233
     96 H         -5.796696   -2.949185   -10.404224 H        1 UNL1     0.0233
     97 H         1.332708   8.835126   -7.866809 H        1 UNL1     0.0280
     98 H         0.245927   9.000782   -6.514532 H        1 UNL1     0.0280
     99 H         1.893739   8.35518   -6.254443 H        1 UNL1     0.0280
     100 H         -0.960766   8.141112   -9.077898 H        1 UNL1     0.2922
     101 H         3.11579   -1.72988   -4.330975 H        1 UNL1     0.0236
     102 H         3.801378   -0.157523   -4.899942 H        1 UNL1     0.0236
     103 H         3.280648   -1.375795   -6.022505 H        1 UNL1     0.0236
     104 H         0.434017   -2.531575   -2.755476 H        1 UNL1     0.2098
     105 H         -0.860809   -0.296184   -1.477184 H        1 UNL1     0.0234
     106 H         -0.385004   -1.605891   -0.359429 H        1 UNL1     0.0234
     107 H         0.0   0.0   0.0 H        1 UNL1     0.0234
     108 H         2.988408   2.044652   -0.666852 H        1 UNL1     0.2098
     109 H         -0.784549   1.216748   -1.038145 H        1 UNL1     0.0234
     110 H         -1.880583   2.543435   -0.536735 H        1 UNL1     0.0234
     111 H         -0.591183   2.847117   -1.647622 H        1 UNL1     0.0234
     112 H         -1.83818   -1.47076   3.488842 H        1 UNL1     0.0342
     113 H         -0.688974   -1.872656   2.163685 H        1 UNL1     0.0342
     114 H         -0.210901   -2.072252   3.851754 H        1 UNL1     0.0342
     115 H         2.871712   1.911091   2.821234 H        1 UNL1     0.0234
     116 H         4.085445   0.863708   2.079192 H        1 UNL1     0.0234
     117 H         3.5762   2.402166   1.352924 H        1 UNL1     0.0234
     118 H         -0.223296   6.891635   -3.38099 H        1 UNL1     0.0309
     119 H         -1.080374   5.339643   -3.635546 H        1 UNL1     0.0309
     120 H         -0.062464   5.609301   -2.237941 H        1 UNL1     0.0309
     121 H         3.850051   4.155614   1.84012 H        1 UNL1     0.0524
     122 H         2.230067   4.824054   2.076118 H        1 UNL1     0.0524
     123 H         2.54959   3.121129   2.49048 H        1 UNL1     0.0524
@<TRIPOS>BOND
     1     1     2    1
     2     1    42    1
     3     2     3    2
     4     3     4    1
     5     4     5    2
     6     5     7    1
     7     6    75    1
     8     6    76    1
     9     6    77    1
    10     7     9   am
    11     9    10    1
    12    10    11    2
    13    10    43    1
    14    11    14    1
    15    11    15    1
    16    12    13   ar
    17    12    27   ar
    18    12    43    1
    19    13    14    1
    20    13    30   ar
    21    14    17    2
    22    15    16    1
    23    16    17    1
    24    16    18    1
    25    16    22    1
    26    18    19    1
    27    19    20    1
    28    20    21    1
    29    21    22    1
    30    23    24    1
    31    23    88    1
    32    23    89    1
    33    24    25    1
    34    24    26    1
    35    24    90    1
    36    25    91    1
    37    25    92    1
    38    25    93    1
    39    26    94    1
    40    26    95    1
    41    26    96    1
    42    27    28   ar
    43    28    29   ar
    44    29    30   ar
    45    29    31    1
    46    30    33    1
    47    31    32    1
    48    32    33    1
    49    32    35    1
    50    34    97    1
    51    34    98    1
    52    34    99    1
    53    35    61    1
    54    36    37    1
    55    36    60    1
    56    37    38    1
    57    38    39    1
    58    39    40    1
    59    40    41    1
    60    41    42    1
    61    45   100    1
    62    47   101    1
    63    47   102    1
    64    47   103    1
    65    48   104    1
    66    49   105    1
    67    49   106    1
    68    49   107    1
    69    50   108    1
    70    51    59    1
    71    52   109    1
    72    52   110    1
    73    52   111    1
    74    53    54    1
    75    54    55    2
    76    54    56    1
    77    56   112    1
    78    56   113    1
    79    56   114    1
    80    57   115    1
    81    57   116    1
    82    57   117    1
    83    58   118    1
    84    58   119    1
    85    58   120    1
    86    59   121    1
    87    59   122    1
    88    59   123    1
    89    60    61    2
    90     1    47    1
    91     1    62    1
    92     2    63    1
    93     3    64    1
    94     4    65    1
    95     5     6    1
    96     7     8    2
    97     9    78    1
    98    15    79    1
    99    18    80    1
   100    18    81    1
   101    19    82    1
   102    19    83    1
   103    20    23    1
   104    21    84    1
   105    21    85    1
   106    22    86    1
   107    22    87    1
   108    27    45    1
   109    28    34    1
   110    32    58    1
   111    33    46    2
   112    36    51    1
   113    36    66    1
   114    37    52    1
   115    37    67    1
   116    38    53    1
   117    38    68    1
   118    42    48    1
   119    42    72    1
   120    43    44    2
   121    60    73    1
   122    61    74    1
   123    39    69    1
   124    39    57    1
   125    40    70    1
   126    40    50    1
   127    41    71    1
   128    41    49    1
