@<TRIPOS>MOLECULE
*****
 123 128 0 0 0
SMALL
GASTEIGER

@<TRIPOS>ATOM
     1 C         4.60154   2.836232   0.667636 C.3        1 UNL1     0.0009
     2 C         5.634673   4.214282   -0.018403 C.2        1 UNL1     -0.0787
     3 C         6.816429   4.668502   -0.720674 C.2        1 UNL1     -0.0649
     4 C         7.196992   6.245318   -1.205628 C.2        1 UNL1     -0.0542
     5 C         7.985107   7.032484   -2.081026 C.2        1 UNL1     0.0115
     6 C         9.164665   6.989853   -3.09105 C.3        1 UNL1     -0.0348
     7 C         7.562725   8.558296   -2.346511 C.2        1 UNL1     0.2441
     8 O         8.125757   9.506412   -1.816797 O.2        1 UNL1     -0.2702
     9 N         6.679056   8.745928   -3.423578 N.am        1 UNL1     -0.2772
     10 C         5.374883   8.629528   -3.000604 C.2        1 UNL1     0.1049
     11 C         4.899838   7.400559   -2.910106 C.2        1 UNL1     0.0801
     12 C         3.783623   9.415684   -1.237883 C.ar        1 UNL1     0.0753
     13 C         3.453374   8.038238   -1.032489 C.ar        1 UNL1     0.0305
     14 C         3.904981   6.997575   -1.953425 C.2        1 UNL1     0.0924
     15 N         5.40952   6.241968   -3.362235 N.pl3        1 UNL1     -0.3170
     16 C         4.42056   5.217175   -3.15727 C.3        1 UNL1     0.1275
     17 N         3.616067   5.699502   -1.974953 N.2        1 UNL1     -0.2557
     18 C         3.476454   5.253828   -4.355194 C.3        1 UNL1     0.0016
     19 C         4.29589   5.090431   -5.625397 C.3        1 UNL1     0.0026
     20 N         5.011395   3.823584   -5.560746 N.3        1 UNL1     -0.3018
     21 C         5.899617   3.669401   -4.406771 C.3        1 UNL1     0.0026
     22 C         5.054894   3.83264   -3.141982 C.3        1 UNL1     0.0016
     23 C         5.580313   3.431579   -6.834837 C.3        1 UNL1     0.0012
     24 C         4.470851   3.02886   -7.819047 C.3        1 UNL1     -0.0339
     25 C         4.0898   4.195652   -8.745035 C.3        1 UNL1     -0.0615
     26 C         4.895564   1.803537   -8.609605 C.3        1 UNL1     -0.0615
     27 C         3.250717   10.414428   -0.426317 C.ar        1 UNL1     0.1347
     28 C         2.349552   10.162797   0.592817 C.ar        1 UNL1     0.0342
     29 C         2.076971   8.795109   0.807973 C.ar        1 UNL1     0.1435
     30 C         2.631481   7.780933   0.02619 C.ar        1 UNL1     0.0774
     31 O         1.136185   8.394377   1.690777 O.3        1 UNL1     -0.4436
     32 C         0.818365   7.050891   1.297194 C.3        1 UNL1     0.3143
     33 C         2.033338   6.563824   0.533768 C.2        1 UNL1     0.2504
     34 C         1.547798   11.195022   1.335651 C.3        1 UNL1     -0.0327
     35 O         0.734316   6.265381   2.49267 O.2        1 UNL1     -0.4528
     36 C         -1.780075   3.518295   1.758204 C.3        1 UNL1     0.0854
     37 C         -1.76578   2.434998   0.611999 C.3        1 UNL1     0.0236
     38 C         -1.873133   0.916367   1.115963 C.3        1 UNL1     0.1131
     39 C         -0.900813   0.394671   2.249407 C.3        1 UNL1     0.0200
     40 C         0.720889   0.78382   2.21648 C.3        1 UNL1     0.0661
     41 C         1.756244   0.615611   0.883305 C.3        1 UNL1     0.0091
     42 C         3.20905   1.612089   0.371651 C.3        1 UNL1     0.0661
     43 C         4.642166   9.75416   -2.400036 C.2        1 UNL1     0.2131
     44 O         4.677542   10.858553   -2.9117 O.2        1 UNL1     -0.2851
     45 O         3.658846   11.725242   -0.664295 O.3        1 UNL1     -0.5056
     46 O         2.430629   5.428636   0.39462 O.2        1 UNL1     -0.2836
     47 C         5.243557   2.275296   1.964997 C.3        1 UNL1     -0.0566
     48 O         4.075189   0.433259   0.128181 O.3        1 UNL1     -0.3909
     49 C         0.921663   0.383498   -0.35649 C.3        1 UNL1     -0.0577
     50 O         0.951739   2.023938   2.854083 O.3        1 UNL1     -0.3910
     51 O         -1.708996   3.022023   3.075813 O.3        1 UNL1     -0.3753
     52 C         -0.835304   2.853801   -0.572808 C.3        1 UNL1     -0.0564
     53 O         -2.208716   -0.056581   0.023679 O.3        1 UNL1     -0.4608
     54 C         -1.997263   -1.409699   0.071523 C.2        1 UNL1     0.3042
     55 O         -1.192258   -2.063695   -0.590363 O.2        1 UNL1     -0.2512
     56 C         -2.830915   -2.112501   1.104871 C.3        1 UNL1     0.0332
     57 C         -1.671122   0.528178   3.644747 C.3        1 UNL1     -0.0567
     58 C         -0.376671   7.152211   0.320899 C.3        1 UNL1     0.0210
     59 C         -2.29865   3.863448   4.065852 C.3        1 UNL1     0.0372
     60 C         -0.736485   4.572843   1.639839 C.2        1 UNL1     -0.0208
     61 C         0.075689   5.092567   2.561253 C.2        1 UNL1     0.0882
     62 H         3.856543   3.577027   0.982141 H        1 UNL1     0.0365
     63 H         5.068521   5.083046   0.323929 H        1 UNL1     0.0576
     64 H         7.526276   3.964902   -1.161321 H        1 UNL1     0.0615
     65 H         6.486868   6.866474   -0.653023 H        1 UNL1     0.0622
     66 H         -2.743735   4.033319   1.639231 H        1 UNL1     0.0645
     67 H         -2.737761   2.567479   0.105776 H        1 UNL1     0.0362
     68 H         -2.871324   0.946289   1.578826 H        1 UNL1     0.0741
     69 H         -0.885703   -0.686788   2.224395 H        1 UNL1     0.0359
     70 H         1.112206   0.030536   2.926758 H        1 UNL1     0.0600
     71 H         2.151347   -0.401754   1.072567 H        1 UNL1     0.0348
     72 H         3.050473   1.8322   1.437353 H        1 UNL1     0.0602
     73 H         -0.78253   5.002473   0.670021 H        1 UNL1     0.0628
     74 H         0.224003   4.675948   3.558082 H        1 UNL1     0.1022
     75 H         9.558753   5.949677   -3.189858 H        1 UNL1     0.0279
     76 H         8.931216   7.250725   -4.120864 H        1 UNL1     0.0279
     77 H         10.054426   7.525275   -2.728629 H        1 UNL1     0.0279
     78 H         6.838573   8.026872   -4.126139 H        1 UNL1     0.1553
     79 H         6.113244   6.183634   -4.075188 H        1 UNL1     0.1484
     80 H         2.735207   4.452307   -4.250871 H        1 UNL1     0.0317
     81 H         2.917841   6.195499   -4.384479 H        1 UNL1     0.0317
     82 H         4.990693   5.930378   -5.772537 H        1 UNL1     0.0428
     83 H         3.60343   5.121258   -6.46718 H        1 UNL1     0.0428
     84 H         6.363056   2.680237   -4.339031 H        1 UNL1     0.0428
     85 H         6.752258   4.36098   -4.451924 H        1 UNL1     0.0428
     86 H         5.70592   3.583   -2.324772 H        1 UNL1     0.0317
     87 H         4.285893   3.05155   -3.101583 H        1 UNL1     0.0317
     88 H         6.118272   4.294517   -7.248641 H        1 UNL1     0.0429
     89 H         6.313513   2.623963   -6.712575 H        1 UNL1     0.0429
     90 H         3.581283   2.726963   -7.253592 H        1 UNL1     0.0308
     91 H         4.957959   4.561987   -9.301093 H        1 UNL1     0.0233
     92 H         3.314055   3.890798   -9.451358 H        1 UNL1     0.0233
     93 H         3.681648   5.050869   -8.192901 H        1 UNL1     0.0233
     94 H         4.199943   1.628344   -9.437406 H        1 UNL1     0.0233
     95 H         5.891612   1.959112   -9.033453 H        1 UNL1     0.0233
     96 H         4.915562   0.909607   -7.979957 H        1 UNL1     0.0233
     97 H         0.874466   10.744898   2.059007 H        1 UNL1     0.0280
     98 H         2.18571   11.882646   1.906176 H        1 UNL1     0.0280
     99 H         0.946123   11.779715   0.620657 H        1 UNL1     0.0280
     100 H         2.955631   12.33573   -0.800006 H        1 UNL1     0.2922
     101 H         4.607072   1.49555   2.382778 H        1 UNL1     0.0236
     102 H         5.477132   3.048174   2.696492 H        1 UNL1     0.0236
     103 H         6.206304   1.77489   1.767756 H        1 UNL1     0.0236
     104 H         4.592745   0.274456   0.941746 H        1 UNL1     0.2098
     105 H         0.708663   1.282569   -0.929302 H        1 UNL1     0.0234
     106 H         1.290946   -0.404148   -1.013126 H        1 UNL1     0.0234
     107 H         0.0   -0.0   0.0 H        1 UNL1     0.0234
     108 H         0.497046   2.709697   2.328005 H        1 UNL1     0.2098
     109 H         0.205672   3.00032   -0.252475 H        1 UNL1     0.0234
     110 H         -0.864837   2.151015   -1.412429 H        1 UNL1     0.0234
     111 H         -1.147697   3.809466   -1.014466 H        1 UNL1     0.0234
     112 H         -2.608473   -3.183855   1.0967 H        1 UNL1     0.0342
     113 H         -2.690614   -1.691906   2.099486 H        1 UNL1     0.0342
     114 H         -3.888747   -1.986118   0.836202 H        1 UNL1     0.0342
     115 H         -2.604157   -0.051962   3.653303 H        1 UNL1     0.0234
     116 H         -1.081842   0.215061   4.508898 H        1 UNL1     0.0234
     117 H         -2.050883   1.545432   3.842023 H        1 UNL1     0.0234
     118 H         -1.341138   7.229381   0.852741 H        1 UNL1     0.0309
     119 H         -0.287581   7.986512   -0.3821 H        1 UNL1     0.0309
     120 H         -0.49706   6.251581   -0.291047 H        1 UNL1     0.0309
     121 H         -1.750091   4.804955   4.067538 H        1 UNL1     0.0524
     122 H         -3.353858   4.094446   3.84401 H        1 UNL1     0.0524
     123 H         -2.238653   3.392927   5.043147 H        1 UNL1     0.0524
@<TRIPOS>BOND
     1     1     2    1
     2     1    42    1
     3     2     3    2
     4     3     4    1
     5     4     5    2
     6     5     7    1
     7     6    75    1
     8     6    76    1
     9     6    77    1
    10     7     9   am
    11     9    10    1
    12    10    11    2
    13    10    43    1
    14    11    14    1
    15    11    15    1
    16    12    13   ar
    17    12    27   ar
    18    12    43    1
    19    13    14    1
    20    13    30   ar
    21    14    17    2
    22    15    16    1
    23    16    17    1
    24    16    18    1
    25    16    22    1
    26    18    19    1
    27    19    20    1
    28    20    21    1
    29    21    22    1
    30    23    24    1
    31    23    88    1
    32    23    89    1
    33    24    25    1
    34    24    26    1
    35    24    90    1
    36    25    91    1
    37    25    92    1
    38    25    93    1
    39    26    94    1
    40    26    95    1
    41    26    96    1
    42    27    28   ar
    43    28    29   ar
    44    29    30   ar
    45    29    31    1
    46    30    33    1
    47    31    32    1
    48    32    33    1
    49    32    35    1
    50    34    97    1
    51    34    98    1
    52    34    99    1
    53    35    61    1
    54    36    37    1
    55    36    60    1
    56    37    38    1
    57    38    39    1
    58    39    40    1
    59    40    41    1
    60    41    42    1
    61    45   100    1
    62    47   101    1
    63    47   102    1
    64    47   103    1
    65    48   104    1
    66    49   105    1
    67    49   106    1
    68    49   107    1
    69    50   108    1
    70    51    59    1
    71    52   109    1
    72    52   110    1
    73    52   111    1
    74    53    54    1
    75    54    55    2
    76    54    56    1
    77    56   112    1
    78    56   113    1
    79    56   114    1
    80    57   115    1
    81    57   116    1
    82    57   117    1
    83    58   118    1
    84    58   119    1
    85    58   120    1
    86    59   121    1
    87    59   122    1
    88    59   123    1
    89    60    61    2
    90     1    47    1
    91     1    62    1
    92     2    63    1
    93     3    64    1
    94     4    65    1
    95     5     6    1
    96     7     8    2
    97     9    78    1
    98    15    79    1
    99    18    80    1
   100    18    81    1
   101    19    82    1
   102    19    83    1
   103    20    23    1
   104    21    84    1
   105    21    85    1
   106    22    86    1
   107    22    87    1
   108    27    45    1
   109    28    34    1
   110    32    58    1
   111    33    46    2
   112    36    51    1
   113    36    66    1
   114    37    52    1
   115    37    67    1
   116    38    53    1
   117    38    68    1
   118    42    48    1
   119    42    72    1
   120    43    44    2
   121    60    73    1
   122    61    74    1
   123    39    69    1
   124    39    57    1
   125    40    70    1
   126    40    50    1
   127    41    71    1
   128    41    49    1
