@<TRIPOS>MOLECULE
*****
 123 128 0 0 0
SMALL
GASTEIGER

@<TRIPOS>ATOM
     1 C         0.122297   -4.060556   0.773311 C.3        1 UNL1     0.0009
     2 C         1.440665   -4.994005   1.683044 C.2        1 UNL1     -0.0787
     3 C         2.627064   -5.823695   1.672109 C.2        1 UNL1     -0.0649
     4 C         3.556736   -6.327524   2.994313 C.2        1 UNL1     -0.0542
     5 C         4.819293   -6.822004   3.40482 C.2        1 UNL1     0.0115
     6 C         6.17062   -7.394645   2.895584 C.3        1 UNL1     -0.0348
     7 C         5.230448   -6.712902   4.952734 C.2        1 UNL1     0.2441
     8 O         5.183547   -7.662745   5.72223 O.2        1 UNL1     -0.2702
     9 N         5.894073   -5.524324   5.303498 N.am        1 UNL1     -0.2772
     10 C         4.984931   -4.549515   5.644864 C.2        1 UNL1     0.1049
     11 C         4.448636   -3.877139   4.642607 C.2        1 UNL1     0.0801
     12 C         2.964631   -4.128928   7.058662 C.ar        1 UNL1     0.0753
     13 C         2.34873   -3.595781   5.88179 C.ar        1 UNL1     0.0305
     14 C         3.118138   -3.332604   4.667788 C.2        1 UNL1     0.0924
     15 N         4.794792   -3.83942   3.344423 N.pl3        1 UNL1     -0.3170
     16 C         4.002204   -2.821245   2.707729 C.3        1 UNL1     0.1275
     17 N         2.738912   -2.755958   3.530865 N.2        1 UNL1     -0.2557
     18 C         4.717288   -1.490862   2.923227 C.3        1 UNL1     0.0016
     19 C         6.135476   -1.608727   2.388027 C.3        1 UNL1     0.0026
     20 N         6.074757   -1.947751   0.972964 N.3        1 UNL1     -0.3018
     21 C         5.351432   -3.181891   0.659807 C.3        1 UNL1     0.0026
     22 C         3.928268   -3.039715   1.202288 C.3        1 UNL1     0.0016
     23 C         7.348976   -1.790988   0.300331 C.3        1 UNL1     0.0012
     24 C         7.757277   -0.310013   0.258375 C.3        1 UNL1     -0.0339
     25 C         9.114167   -0.120312   -0.439421 C.3        1 UNL1     -0.0615
     26 C         6.666982   0.512152   -0.406516 C.3        1 UNL1     -0.0615
     27 C         2.252408   -4.263837   8.248055 C.ar        1 UNL1     0.1347
     28 C         0.935691   -3.864619   8.392734 C.ar        1 UNL1     0.0342
     29 C         0.335527   -3.388083   7.207879 C.ar        1 UNL1     0.1435
     30 C         1.026041   -3.281086   6.000005 C.ar        1 UNL1     0.0774
     31 O         -0.907409   -2.85883   7.211015 O.3        1 UNL1     -0.4436
     32 C         -0.974782   -2.084218   6.004239 C.3        1 UNL1     0.3143
     33 C         0.071341   -2.686322   5.0881 C.2        1 UNL1     0.2504
     34 C         0.188335   -3.744787   9.691656 C.3        1 UNL1     -0.0327
     35 O         -2.251004   -2.339598   5.40483 O.2        1 UNL1     -0.4528
     36 C         -3.173375   0.829754   3.530657 C.3        1 UNL1     0.0854
     37 C         -2.380979   1.580353   2.392135 C.3        1 UNL1     0.0236
     38 C         -3.209073   1.824909   1.040766 C.3        1 UNL1     0.1131
     39 C         -3.962634   0.616522   0.352133 C.3        1 UNL1     0.0200
     40 C         -3.219534   -0.869733   0.206232 C.3        1 UNL1     0.0661
     41 C         -1.662463   -1.146179   -0.407542 C.3        1 UNL1     0.0091
     42 C         -0.422042   -2.426076   0.026766 C.3        1 UNL1     0.0661
     43 C         4.412063   -4.450197   6.995535 C.2        1 UNL1     0.2131
     44 O         5.12771   -4.5279   7.97765 O.2        1 UNL1     -0.2851
     45 O         2.912906   -4.834047   9.334352 O.3        1 UNL1     -0.5056
     46 O         0.098978   -2.693035   3.87771 O.2        1 UNL1     -0.2836
     47 C         -0.914514   -5.044377   0.167423 C.3        1 UNL1     -0.0566
     48 O         -0.129184   -2.783126   -1.382441 O.3        1 UNL1     -0.3909
     49 C         -0.926859   0.173095   -0.484344 C.3        1 UNL1     -0.0577
     50 O         -3.427103   -1.64987   1.366415 O.3        1 UNL1     -0.3910
     51 O         -4.435014   0.316193   3.167403 O.3        1 UNL1     -0.3753
     52 C         -0.867684   1.186982   2.380032 C.3        1 UNL1     -0.0564
     53 O         -2.575999   2.828368   0.121738 O.3        1 UNL1     -0.4608
     54 C         -1.250078   2.865814   -0.222443 C.2        1 UNL1     0.3042
     55 O         -0.305532   2.367257   0.388387 O.2        1 UNL1     -0.2512
     56 C         -0.987292   3.558683   -1.529191 C.3        1 UNL1     0.0332
     57 C         -5.480434   0.644675   0.855784 C.3        1 UNL1     -0.0567
     58 C         -0.540946   -0.64853   6.381223 C.3        1 UNL1     0.0210
     59 C         -4.664039   -1.038603   3.552036 C.3        1 UNL1     0.0372
     60 C         -2.430598   -0.2807   4.186655 C.2        1 UNL1     -0.0208
     61 C         -2.826334   -1.51228   4.511227 C.2        1 UNL1     0.0882
     62 H         -0.284003   -3.732473   1.737672 H        1 UNL1     0.0365
     63 H         1.106937   -4.864275   2.714677 H        1 UNL1     0.0576
     64 H         3.140899   -6.075527   0.741699 H        1 UNL1     0.0615
     65 H         2.92436   -6.104023   3.857812 H        1 UNL1     0.0622
     66 H         -3.326112   1.591017   4.308601 H        1 UNL1     0.0645
     67 H         -2.274745   2.610645   2.773938 H        1 UNL1     0.0362
     68 H         -4.003179   2.481446   1.427907 H        1 UNL1     0.0741
     69 H         -4.17323   0.878298   -0.67623 H        1 UNL1     0.0359
     70 H         -3.87029   -1.333957   -0.559323 H        1 UNL1     0.0600
     71 H         -1.903651   -1.3226   -1.474154 H        1 UNL1     0.0348
     72 H         -1.388846   -2.805895   0.387797 H        1 UNL1     0.0602
     73 H         -1.485337   0.076159   4.512818 H        1 UNL1     0.0628
     74 H         -3.75332   -1.972703   4.167795 H        1 UNL1     0.1022
     75 H         6.005623   -8.340726   2.325723 H        1 UNL1     0.0279
     76 H         6.718217   -6.78357   2.181585 H        1 UNL1     0.0279
     77 H         6.819308   -7.743807   3.712279 H        1 UNL1     0.0279
     78 H         6.42596   -5.181474   4.506235 H        1 UNL1     0.1553
     79 H         5.692536   -4.125018   2.998848 H        1 UNL1     0.1484
     80 H         4.159983   -0.698116   2.409679 H        1 UNL1     0.0317
     81 H         4.735259   -1.223827   3.98531 H        1 UNL1     0.0317
     82 H         6.721622   -2.351975   2.94832 H        1 UNL1     0.0428
     83 H         6.627849   -0.649938   2.55338 H        1 UNL1     0.0428
     84 H         5.25171   -3.371569   -0.413454 H        1 UNL1     0.0428
     85 H         5.874601   -4.070084   1.040233 H        1 UNL1     0.0428
     86 H         3.393533   -3.898491   0.84097 H        1 UNL1     0.0317
     87 H         3.421959   -2.200098   0.710566 H        1 UNL1     0.0317
     88 H         8.106105   -2.346273   0.869285 H        1 UNL1     0.0429
     89 H         7.323363   -2.223407   -0.708199 H        1 UNL1     0.0429
     90 H         7.835812   0.07011   1.283827 H        1 UNL1     0.0308
     91 H         9.010278   -0.157664   -1.527959 H        1 UNL1     0.0233
     92 H         9.565004   0.833252   -0.154692 H        1 UNL1     0.0233
     93 H         9.838396   -0.895853   -0.162177 H        1 UNL1     0.0233
     94 H         7.082903   1.448879   -0.793024 H        1 UNL1     0.0233
     95 H         6.242864   -0.041349   -1.248966 H        1 UNL1     0.0233
     96 H         5.864961   0.754216   0.296432 H        1 UNL1     0.0233
     97 H         -0.813081   -3.349199   9.550564 H        1 UNL1     0.0280
     98 H         0.060695   -4.716275   10.186807 H        1 UNL1     0.0280
     99 H         0.734217   -3.069359   10.370556 H        1 UNL1     0.0280
     100 H         2.578939   -4.575489   10.175326 H        1 UNL1     0.2922
     101 H         -0.538026   -5.440675   -0.775371 H        1 UNL1     0.0236
     102 H         -1.907337   -4.608641   0.060553 H        1 UNL1     0.0236
     103 H         -1.064332   -5.932169   0.804269 H        1 UNL1     0.0236
     104 H         -0.669739   -2.201857   -1.95244 H        1 UNL1     0.2098
     105 H         -0.715707   0.51135   -1.495685 H        1 UNL1     0.0234
     106 H         -1.374451   0.978593   0.097688 H        1 UNL1     0.0234
     107 H         0.0   0.0   0.0 H        1 UNL1     0.0234
     108 H         -2.612811   -1.594527   1.902731 H        1 UNL1     0.2098
     109 H         -0.621627   0.455993   3.162861 H        1 UNL1     0.0234
     110 H         -0.528285   0.811732   1.40857 H        1 UNL1     0.0234
     111 H         -0.222366   2.0549   2.570375 H        1 UNL1     0.0234
     112 H         0.062281   3.863118   -1.584535 H        1 UNL1     0.0342
     113 H         -1.260222   2.940129   -2.382856 H        1 UNL1     0.0342
     114 H         -1.603888   4.467325   -1.565827 H        1 UNL1     0.0342
     115 H         -5.631994   1.38357   1.65469 H        1 UNL1     0.0234
     116 H         -6.205596   0.859151   0.068263 H        1 UNL1     0.0234
     117 H         -5.79302   -0.28443   1.362733 H        1 UNL1     0.0234
     118 H         -0.974166   0.107119   5.702753 H        1 UNL1     0.0309
     119 H         -0.784774   -0.383502   7.41491 H        1 UNL1     0.0309
     120 H         0.538395   -0.494036   6.275102 H        1 UNL1     0.0309
     121 H         -3.792505   -1.618847   3.250206 H        1 UNL1     0.0524
     122 H         -4.775637   -1.150511   4.643393 H        1 UNL1     0.0524
     123 H         -5.556388   -1.421792   3.065237 H        1 UNL1     0.0524
@<TRIPOS>BOND
     1     1     2    1
     2     1    42    1
     3     2     3    2
     4     3     4    1
     5     4     5    2
     6     5     7    1
     7     6    75    1
     8     6    76    1
     9     6    77    1
    10     7     9   am
    11     9    10    1
    12    10    11    2
    13    10    43    1
    14    11    14    1
    15    11    15    1
    16    12    13   ar
    17    12    27   ar
    18    12    43    1
    19    13    14    1
    20    13    30   ar
    21    14    17    2
    22    15    16    1
    23    16    17    1
    24    16    18    1
    25    16    22    1
    26    18    19    1
    27    19    20    1
    28    20    21    1
    29    21    22    1
    30    23    24    1
    31    23    88    1
    32    23    89    1
    33    24    25    1
    34    24    26    1
    35    24    90    1
    36    25    91    1
    37    25    92    1
    38    25    93    1
    39    26    94    1
    40    26    95    1
    41    26    96    1
    42    27    28   ar
    43    28    29   ar
    44    29    30   ar
    45    29    31    1
    46    30    33    1
    47    31    32    1
    48    32    33    1
    49    32    35    1
    50    34    97    1
    51    34    98    1
    52    34    99    1
    53    35    61    1
    54    36    37    1
    55    36    60    1
    56    37    38    1
    57    38    39    1
    58    39    40    1
    59    40    41    1
    60    41    42    1
    61    45   100    1
    62    47   101    1
    63    47   102    1
    64    47   103    1
    65    48   104    1
    66    49   105    1
    67    49   106    1
    68    49   107    1
    69    50   108    1
    70    51    59    1
    71    52   109    1
    72    52   110    1
    73    52   111    1
    74    53    54    1
    75    54    55    2
    76    54    56    1
    77    56   112    1
    78    56   113    1
    79    56   114    1
    80    57   115    1
    81    57   116    1
    82    57   117    1
    83    58   118    1
    84    58   119    1
    85    58   120    1
    86    59   121    1
    87    59   122    1
    88    59   123    1
    89    60    61    2
    90     1    47    1
    91     1    62    1
    92     2    63    1
    93     3    64    1
    94     4    65    1
    95     5     6    1
    96     7     8    2
    97     9    78    1
    98    15    79    1
    99    18    80    1
   100    18    81    1
   101    19    82    1
   102    19    83    1
   103    20    23    1
   104    21    84    1
   105    21    85    1
   106    22    86    1
   107    22    87    1
   108    27    45    1
   109    28    34    1
   110    32    58    1
   111    33    46    2
   112    36    51    1
   113    36    66    1
   114    37    52    1
   115    37    67    1
   116    38    53    1
   117    38    68    1
   118    42    48    1
   119    42    72    1
   120    43    44    2
   121    60    73    1
   122    61    74    1
   123    39    69    1
   124    39    57    1
   125    40    70    1
   126    40    50    1
   127    41    71    1
   128    41    49    1
