@<TRIPOS>MOLECULE
*****
 123 128 0 0 0
SMALL
GASTEIGER

@<TRIPOS>ATOM
     1 C         5.165102   1.752588   0.499425 C.3        1 UNL1     0.0009
     2 C         6.602251   2.560515   -0.348451 C.2        1 UNL1     -0.0787
     3 C         7.885081   2.463879   -1.012571 C.2        1 UNL1     -0.0649
     4 C         8.76252   3.700295   -1.766052 C.2        1 UNL1     -0.0542
     5 C         9.783539   3.99449   -2.703093 C.2        1 UNL1     0.0115
     6 C         10.913378   3.370626   -3.567722 C.3        1 UNL1     -0.0348
     7 C         9.878473   5.478291   -3.30833 C.2        1 UNL1     0.2441
     8 O         10.701195   6.300312   -2.928942 O.2        1 UNL1     -0.2702
     9 N         9.129621   5.685555   -4.47983 N.am        1 UNL1     -0.2772
     10 C         7.846182   6.070956   -4.167461 C.2        1 UNL1     0.1049
     11 C         7.000801   5.098635   -3.877387 C.2        1 UNL1     0.0801
     12 C         6.544641   7.675468   -2.757191 C.ar        1 UNL1     0.0753
     13 C         5.78591   6.546595   -2.311567 C.ar        1 UNL1     0.0305
     14 C         5.904744   5.241487   -2.957806 C.2        1 UNL1     0.0924
     15 N         7.124705   3.769879   -4.037338 N.pl3        1 UNL1     -0.3170
     16 C         5.85492   3.169441   -3.725291 C.3        1 UNL1     0.1275
     17 N         5.216462   4.123405   -2.74547 N.2        1 UNL1     -0.2557
     18 C         5.003683   3.228797   -4.990034 C.3        1 UNL1     0.0016
     19 C         5.760597   2.546186   -6.118179 C.3        1 UNL1     0.0026
     20 N         6.031348   1.168006   -5.733028 N.3        1 UNL1     -0.3018
     21 C         6.793208   1.007273   -4.492825 C.3        1 UNL1     0.0026
     22 C         6.012434   1.696299   -3.37232 C.3        1 UNL1     0.0016
     23 C         6.477973   0.349684   -6.842766 C.3        1 UNL1     0.0012
     24 C         5.324019   0.100031   -7.826545 C.3        1 UNL1     -0.0339
     25 C         5.35029   1.104128   -8.990657 C.3        1 UNL1     -0.0615
     26 C         5.365226   -1.33426   -8.324432 C.3        1 UNL1     -0.0615
     27 C         6.338247   8.94258   -2.216869 C.ar        1 UNL1     0.1347
     28 C         5.377713   9.210614   -1.25792 C.ar        1 UNL1     0.0342
     29 C         4.676467   8.075243   -0.79928 C.ar        1 UNL1     0.1435
     30 C         4.897609   6.793783   -1.305419 C.ar        1 UNL1     0.0774
     31 O         3.634267   8.187312   0.052932 O.3        1 UNL1     -0.4436
     32 C         2.913774   6.954019   -0.091119 C.3        1 UNL1     0.3143
     33 C         3.928569   5.962142   -0.622703 C.2        1 UNL1     0.2504
     34 C         4.929193   10.576018   -0.816782 C.3        1 UNL1     -0.0327
     35 O         2.55177   6.516018   1.224313 O.2        1 UNL1     -0.4528
     36 C         -0.689191   4.581517   0.821863 C.3        1 UNL1     0.0854
     37 C         -0.992305   3.321374   -0.076849 C.3        1 UNL1     0.0236
     38 C         -1.592868   2.059243   0.70934 C.3        1 UNL1     0.1131
     39 C         -0.86838   1.527901   2.011285 C.3        1 UNL1     0.0200
     40 C         0.792875   1.383666   2.05451 C.3        1 UNL1     0.0661
     41 C         1.754389   0.616504   0.886365 C.3        1 UNL1     0.0091
     42 C         3.462416   0.98087   0.324865 C.3        1 UNL1     0.0661
     43 C         7.496311   7.469388   -3.877063 C.2        1 UNL1     0.2131
     44 O         7.896404   8.368336   -4.594388 O.2        1 UNL1     -0.2851
     45 O         7.150274   9.978692   -2.673512 O.3        1 UNL1     -0.5056
     46 O         3.945361   4.758521   -0.492819 O.2        1 UNL1     -0.2836
     47 C         5.559938   1.322339   1.937817 C.3        1 UNL1     -0.0566
     48 O         3.912013   -0.429935   0.406164 O.3        1 UNL1     -0.3909
     49 C         0.922005   0.384182   -0.354868 C.3        1 UNL1     -0.0577
     50 O         1.391577   2.601714   2.449019 O.3        1 UNL1     -0.3910
     51 O         -0.814937   4.390688   2.212978 O.3        1 UNL1     -0.3753
     52 C         0.053778   3.162619   -1.228134 C.3        1 UNL1     -0.0564
     53 O         -2.193461   1.020456   -0.192068 O.3        1 UNL1     -0.4608
     54 C         -2.427258   -0.286742   0.146317 C.2        1 UNL1     0.3042
     55 O         -1.856784   -1.285081   -0.291538 O.2        1 UNL1     -0.2512
     56 C         -3.468534   -0.454034   1.216116 C.3        1 UNL1     0.0332
     57 C         -1.591587   2.195359   3.272097 C.3        1 UNL1     -0.0567
     58 C         1.839791   7.199063   -1.176497 C.3        1 UNL1     0.0210
     59 C         -1.160959   5.562492   2.94987 C.3        1 UNL1     0.0372
     60 C         0.639596   5.211845   0.593449 C.2        1 UNL1     -0.0208
     61 C         1.55105   5.647157   1.464368 C.2        1 UNL1     0.0882
     62 H         4.688276   2.736311   0.586816 H        1 UNL1     0.0365
     63 H         6.335018   3.61402   -0.242699 H        1 UNL1     0.0576
     64 H         8.343801   1.497565   -1.233751 H        1 UNL1     0.0615
     65 H         8.27425   4.615038   -1.419178 H        1 UNL1     0.0622
     66 H         -1.434039   5.327679   0.511235 H        1 UNL1     0.0645
     67 H         -1.857309   3.630503   -0.689032 H        1 UNL1     0.0362
     68 H         -2.540745   2.495092   1.060176 H        1 UNL1     0.0741
     69 H         -1.199341   0.51639   2.205497 H        1 UNL1     0.0359
     70 H         0.90404   0.722764   2.935367 H        1 UNL1     0.0600
     71 H         1.79824   -0.404947   1.312596 H        1 UNL1     0.0348
     72 H         3.354872   1.468254   1.304766 H        1 UNL1     0.0602
     73 H         0.758675   5.409967   -0.442802 H        1 UNL1     0.0628
     74 H         1.532288   5.435676   2.534023 H        1 UNL1     0.1022
     75 H         10.95855   2.265269   -3.415475 H        1 UNL1     0.0279
     76 H         10.801075   3.454133   -4.646371 H        1 UNL1     0.0279
     77 H         11.917784   3.675893   -3.239572 H        1 UNL1     0.0279
     78 H         9.068999   4.81595   -5.005368 H        1 UNL1     0.1553
     79 H         7.791118   3.342886   -4.654188 H        1 UNL1     0.1484
     80 H         4.042546   2.736946   -4.79751 H        1 UNL1     0.0317
     81 H         4.776591   4.26557   -5.260555 H        1 UNL1     0.0317
     82 H         6.691152   3.078421   -6.364564 H        1 UNL1     0.0428
     83 H         5.136554   2.601494   -7.010682 H        1 UNL1     0.0428
     84 H         6.913967   -0.035813   -4.184279 H        1 UNL1     0.0428
     85 H         7.823137   1.376211   -4.595036 H        1 UNL1     0.0428
     86 H         6.527884   1.445672   -2.463758 H        1 UNL1     0.0317
     87 H         5.033213   1.217782   -3.248854 H        1 UNL1     0.0317
     88 H         7.274281   0.892513   -7.368621 H        1 UNL1     0.0429
     89 H         6.910874   -0.596003   -6.491985 H        1 UNL1     0.0429
     90 H         4.370385   0.205577   -7.295832 H        1 UNL1     0.0308
     91 H         6.301128   1.062567   -9.530362 H        1 UNL1     0.0233
     92 H         4.532916   0.907949   -9.688527 H        1 UNL1     0.0233
     93 H         5.221583   2.13937   -8.652215 H        1 UNL1     0.0233
     94 H         4.670132   -1.463774   -9.161035 H        1 UNL1     0.0233
     95 H         6.370255   -1.577461   -8.680426 H        1 UNL1     0.0233
     96 H         5.090399   -2.038907   -7.534551 H        1 UNL1     0.0233
     97 H         4.134939   10.52505   -0.078004 H        1 UNL1     0.0280
     98 H         5.740879   11.146365   -0.346542 H        1 UNL1     0.0280
     99 H         4.556185   11.140897   -1.686766 H        1 UNL1     0.0280
     100 H         6.683057   10.729167   -2.996186 H        1 UNL1     0.2922
     101 H         4.696822   0.88763   2.441519 H        1 UNL1     0.0236
     102 H         6.009321   2.127616   2.517961 H        1 UNL1     0.0236
     103 H         6.316835   0.520279   1.937099 H        1 UNL1     0.0236
     104 H         4.330519   -0.556234   1.280162 H        1 UNL1     0.2098
     105 H         0.709374   1.283267   -0.927795 H        1 UNL1     0.0234
     106 H         1.292876   -0.403055   -1.011099 H        1 UNL1     0.0234
     107 H         0.0   -0.0   0.0 H        1 UNL1     0.0234
     108 H         1.193992   3.260137   1.755327 H        1 UNL1     0.2098
     109 H         1.078213   3.049688   -0.846699 H        1 UNL1     0.0234
     110 H         -0.177119   2.335835   -1.908471 H        1 UNL1     0.0234
     111 H         0.0751   4.045932   -1.880245 H        1 UNL1     0.0234
     112 H         -3.600478   -1.516067   1.444204 H        1 UNL1     0.0342
     113 H         -3.226933   0.111509   2.1148 H        1 UNL1     0.0342
     114 H         -4.422943   -0.071672   0.82873 H        1 UNL1     0.0342
     115 H         -2.661058   1.946192   3.308636 H        1 UNL1     0.0234
     116 H         -1.156144   1.91524   4.233331 H        1 UNL1     0.0234
     117 H         -1.631012   3.297219   3.224232 H        1 UNL1     0.0234
     118 H         0.937793   7.684936   -0.764997 H        1 UNL1     0.0309
     119 H         2.209777   7.78797   -2.021779 H        1 UNL1     0.0309
     120 H         1.452523   6.267105   -1.602623 H        1 UNL1     0.0309
     121 H         -0.357137   6.285798   2.815499 H        1 UNL1     0.0524
     122 H         -2.091022   6.02786   2.583195 H        1 UNL1     0.0524
     123 H         -1.27781   5.323325   4.003074 H        1 UNL1     0.0524
@<TRIPOS>BOND
     1     1     2    1
     2     1    42    1
     3     2     3    2
     4     3     4    1
     5     4     5    2
     6     5     7    1
     7     6    75    1
     8     6    76    1
     9     6    77    1
    10     7     9   am
    11     9    10    1
    12    10    11    2
    13    10    43    1
    14    11    14    1
    15    11    15    1
    16    12    13   ar
    17    12    27   ar
    18    12    43    1
    19    13    14    1
    20    13    30   ar
    21    14    17    2
    22    15    16    1
    23    16    17    1
    24    16    18    1
    25    16    22    1
    26    18    19    1
    27    19    20    1
    28    20    21    1
    29    21    22    1
    30    23    24    1
    31    23    88    1
    32    23    89    1
    33    24    25    1
    34    24    26    1
    35    24    90    1
    36    25    91    1
    37    25    92    1
    38    25    93    1
    39    26    94    1
    40    26    95    1
    41    26    96    1
    42    27    28   ar
    43    28    29   ar
    44    29    30   ar
    45    29    31    1
    46    30    33    1
    47    31    32    1
    48    32    33    1
    49    32    35    1
    50    34    97    1
    51    34    98    1
    52    34    99    1
    53    35    61    1
    54    36    37    1
    55    36    60    1
    56    37    38    1
    57    38    39    1
    58    39    40    1
    59    40    41    1
    60    41    42    1
    61    45   100    1
    62    47   101    1
    63    47   102    1
    64    47   103    1
    65    48   104    1
    66    49   105    1
    67    49   106    1
    68    49   107    1
    69    50   108    1
    70    51    59    1
    71    52   109    1
    72    52   110    1
    73    52   111    1
    74    53    54    1
    75    54    55    2
    76    54    56    1
    77    56   112    1
    78    56   113    1
    79    56   114    1
    80    57   115    1
    81    57   116    1
    82    57   117    1
    83    58   118    1
    84    58   119    1
    85    58   120    1
    86    59   121    1
    87    59   122    1
    88    59   123    1
    89    60    61    2
    90     1    47    1
    91     1    62    1
    92     2    63    1
    93     3    64    1
    94     4    65    1
    95     5     6    1
    96     7     8    2
    97     9    78    1
    98    15    79    1
    99    18    80    1
   100    18    81    1
   101    19    82    1
   102    19    83    1
   103    20    23    1
   104    21    84    1
   105    21    85    1
   106    22    86    1
   107    22    87    1
   108    27    45    1
   109    28    34    1
   110    32    58    1
   111    33    46    2
   112    36    51    1
   113    36    66    1
   114    37    52    1
   115    37    67    1
   116    38    53    1
   117    38    68    1
   118    42    48    1
   119    42    72    1
   120    43    44    2
   121    60    73    1
   122    61    74    1
   123    39    69    1
   124    39    57    1
   125    40    70    1
   126    40    50    1
   127    41    71    1
   128    41    49    1
