@<TRIPOS>MOLECULE
*****
 123 128 0 0 0
SMALL
GASTEIGER

@<TRIPOS>ATOM
     1 C         -3.096372   -1.491786   -2.287437 C.3        1 UNL1     0.0009
     2 C         -3.619412   -3.259239   -2.48638 C.2        1 UNL1     -0.0787
     3 C         -3.567067   -4.51047   -3.212828 C.2        1 UNL1     -0.0649
     4 C         -4.263624   -5.992732   -2.7838 C.2        1 UNL1     -0.0542
     5 C         -4.228905   -7.394242   -2.987865 C.2        1 UNL1     0.0115
     6 C         -3.628059   -8.520719   -3.872938 C.3        1 UNL1     -0.0348
     7 C         -4.930053   -8.354003   -1.908866 C.2        1 UNL1     0.2441
     8 O         -6.022885   -8.872882   -2.090549 O.2        1 UNL1     -0.2702
     9 N         -4.093941   -8.767631   -0.85721 N.am        1 UNL1     -0.2772
     10 C         -4.130314   -7.85549   0.172352 C.2        1 UNL1     0.1049
     11 C         -3.341648   -6.803672   0.046231 C.2        1 UNL1     0.0801
     12 C         -5.706102   -6.549685   1.610788 C.ar        1 UNL1     0.0753
     13 C         -4.933113   -5.3936   1.272312 C.ar        1 UNL1     0.0305
     14 C         -3.648699   -5.50637   0.584842 C.2        1 UNL1     0.0924
     15 N         -2.345749   -6.570332   -0.825701 N.pl3        1 UNL1     -0.3170
     16 C         -1.690844   -5.352138   -0.429017 C.3        1 UNL1     0.1275
     17 N         -2.761358   -4.562471   0.28383 N.2        1 UNL1     -0.2557
     18 C         -0.657821   -5.718972   0.632114 C.3        1 UNL1     0.0016
     19 C         0.274048   -6.774867   0.059142 C.3        1 UNL1     0.0026
     20 N         0.915352   -6.235953   -1.132214 N.3        1 UNL1     -0.3018
     21 C         -0.000836   -5.797172   -2.186936 C.3        1 UNL1     0.0026
     22 C         -0.924459   -4.733532   -1.590709 C.3        1 UNL1     0.0016
     23 C         2.035587   -7.038339   -1.581541 C.3        1 UNL1     0.0012
     24 C         3.301834   -6.690469   -0.783193 C.3        1 UNL1     -0.0339
     25 C         4.533916   -6.592081   -1.697715 C.3        1 UNL1     -0.0615
     26 C         3.085909   -5.409379   0.00355 C.3        1 UNL1     -0.0615
     27 C         -6.868227   -6.443567   2.371263 C.ar        1 UNL1     0.1347
     28 C         -7.333645   -5.244724   2.881372 C.ar        1 UNL1     0.0342
     29 C         -6.583479   -4.113952   2.494372 C.ar        1 UNL1     0.1435
     30 C         -5.437511   -4.200834   1.7029 C.ar        1 UNL1     0.0774
     31 O         -6.844829   -2.888393   2.99906 O.3        1 UNL1     -0.4436
     32 C         -5.642956   -2.137694   2.769224 C.3        1 UNL1     0.3143
     33 C         -4.951688   -2.839406   1.61772 C.2        1 UNL1     0.2504
     34 C         -8.422004   -5.085828   3.906227 C.3        1 UNL1     -0.0327
     35 O         -6.033432   -0.843153   2.294941 O.2        1 UNL1     -0.4528
     36 C         -3.329966   1.551915   3.462422 C.3        1 UNL1     0.0854
     37 C         -1.77816   1.515515   3.182965 C.3        1 UNL1     0.0236
     38 C         -1.176751   2.853005   2.533985 C.3        1 UNL1     0.1131
     39 C         -1.857418   3.477335   1.249784 C.3        1 UNL1     0.0200
     40 C         -2.3399   2.497936   -0.011337 C.3        1 UNL1     0.0661
     41 C         -1.392037   1.310902   -0.766399 C.3        1 UNL1     0.0091
     42 C         -1.871681   -0.285732   -1.531972 C.3        1 UNL1     0.0661
     43 C         -5.180992   -7.875789   1.200951 C.2        1 UNL1     0.2131
     44 O         -5.501851   -8.921434   1.736127 O.2        1 UNL1     -0.2851
     45 O         -7.58676   -7.611634   2.617775 O.3        1 UNL1     -0.5056
     46 O         -4.189051   -2.374259   0.800483 O.2        1 UNL1     -0.2836
     47 C         -3.822948   -0.594333   -3.325052 C.3        1 UNL1     -0.0566
     48 O         -1.077711   -0.063623   -2.76461 O.3        1 UNL1     -0.3909
     49 C         -0.17419   1.041794   0.089126 C.3        1 UNL1     -0.0577
     50 O         -3.646475   2.005544   0.208056 O.3        1 UNL1     -0.3910
     51 O         -4.021349   2.670522   2.954348 O.3        1 UNL1     -0.3753
     52 C         -1.298512   0.092207   2.748131 C.3        1 UNL1     -0.0564
     53 O         0.320329   2.933064   2.602296 O.3        1 UNL1     -0.4608
     54 C         1.191484   2.070969   1.989261 C.2        1 UNL1     0.3042
     55 O         0.989029   1.396742   0.980168 O.2        1 UNL1     -0.2512
     56 C         2.547786   2.027321   2.633662 C.3        1 UNL1     0.0332
     57 C         -2.872702   4.609889   1.744452 C.3        1 UNL1     -0.0567
     58 C         -4.778186   -2.296217   4.041456 C.3        1 UNL1     0.0210
     59 C         -3.567899   3.127897   1.681141 C.3        1 UNL1     0.0372
     60 C         -4.077952   0.345452   3.015069 C.2        1 UNL1     -0.0208
     61 C         -5.234444   0.239186   2.359341 C.2        1 UNL1     0.0882
     62 H         -3.685121   -1.441585   -1.363551 H        1 UNL1     0.0365
     63 H         -4.339173   -3.351639   -1.670367 H        1 UNL1     0.0576
     64 H         -2.901027   -4.648757   -4.067448 H        1 UNL1     0.0615
     65 H         -4.961808   -5.730846   -1.984152 H        1 UNL1     0.0622
     66 H         -3.412759   1.568622   4.558283 H        1 UNL1     0.0645
     67 H         -1.324047   1.536272   4.188903 H        1 UNL1     0.0362
     68 H         -1.385299   3.56279   3.348992 H        1 UNL1     0.0741
     69 H         -1.153835   4.147343   0.773898 H        1 UNL1     0.0359
     70 H         -2.460588   3.257521   -0.80728 H        1 UNL1     0.0600
     71 H         -0.951982   1.908933   -1.588389 H        1 UNL1     0.0348
     72 H         -2.791104   0.315616   -1.48341 H        1 UNL1     0.0602
     73 H         -3.610957   -0.521838   3.411267 H        1 UNL1     0.0628
     74 H         -5.746513   1.070461   1.873537 H        1 UNL1     0.1022
     75 H         -2.833092   -8.111605   -4.542032 H        1 UNL1     0.0279
     76 H         -3.107007   -9.320973   -3.3522 H        1 UNL1     0.0279
     77 H         -4.347043   -8.91458   -4.606175 H        1 UNL1     0.0279
     78 H         -3.13197   -8.820644   -1.18566 H        1 UNL1     0.1553
     79 H         -1.883006   -7.291015   -1.348595 H        1 UNL1     0.1484
     80 H         -0.108483   -4.815646   0.923652 H        1 UNL1     0.0317
     81 H         -1.144401   -6.095997   1.538063 H        1 UNL1     0.0317
     82 H         -0.259912   -7.709513   -0.167208 H        1 UNL1     0.0428
     83 H         1.001391   -7.023187   0.832679 H        1 UNL1     0.0428
     84 H         0.502137   -5.323823   -3.035918 H        1 UNL1     0.0428
     85 H         -0.542884   -6.641479   -2.634872 H        1 UNL1     0.0428
     86 H         -1.48757   -4.342505   -2.417747 H        1 UNL1     0.0317
     87 H         -0.335363   -3.871507   -1.254591 H        1 UNL1     0.0317
     88 H         1.791264   -8.094285   -1.40667 H        1 UNL1     0.0429
     89 H         2.202791   -6.921253   -2.660016 H        1 UNL1     0.0429
     90 H         3.482418   -7.473344   -0.037063 H        1 UNL1     0.0308
     91 H         5.386893   -7.131599   -1.275277 H        1 UNL1     0.0233
     92 H         4.311749   -6.992648   -2.68958 H        1 UNL1     0.0233
     93 H         4.857803   -5.555679   -1.851996 H        1 UNL1     0.0233
     94 H         4.048462   -4.93722   0.228039 H        1 UNL1     0.0233
     95 H         2.493825   -4.704006   -0.586236 H        1 UNL1     0.0233
     96 H         2.567611   -5.602959   0.946875 H        1 UNL1     0.0233
     97 H         -9.011946   -5.990686   4.017716 H        1 UNL1     0.0280
     98 H         -8.021642   -4.863259   4.903939 H        1 UNL1     0.0280
     99 H         -9.096913   -4.268323   3.604103 H        1 UNL1     0.0280
     100 H         -8.041254   -7.625204   3.441712 H        1 UNL1     0.2922
     101 H         -4.893577   -0.796297   -3.300116 H        1 UNL1     0.0236
     102 H         -3.413201   -0.683709   -4.330588 H        1 UNL1     0.0236
     103 H         -3.734504   0.477213   -3.07978 H        1 UNL1     0.0236
     104 H         -0.736757   -0.931756   -3.05627 H        1 UNL1     0.2098
     105 H         0.725591   1.558517   -0.235226 H        1 UNL1     0.0234
     106 H         -0.327983   1.186049   1.158455 H        1 UNL1     0.0234
     107 H         0.0   0.0   0.0 H        1 UNL1     0.0234
     108 H         -4.270113   2.703852   -0.069811 H        1 UNL1     0.2098
     109 H         -2.007736   -0.394911   2.064443 H        1 UNL1     0.0234
     110 H         -0.299158   0.093138   2.299761 H        1 UNL1     0.0234
     111 H         -1.203546   -0.583327   3.608701 H        1 UNL1     0.0234
     112 H         2.862254   0.98802   2.768967 H        1 UNL1     0.0342
     113 H         3.288752   2.589091   2.066893 H        1 UNL1     0.0342
     114 H         2.470116   2.487868   3.628161 H        1 UNL1     0.0342
     115 H         -3.919843   4.316193   1.588165 H        1 UNL1     0.0234
     116 H         -2.760399   4.877833   2.796898 H        1 UNL1     0.0234
     117 H         -2.820552   5.537826   1.149343 H        1 UNL1     0.0234
     118 H         -4.672759   -1.345161   4.59226 H        1 UNL1     0.0309
     119 H         -5.154316   -3.065317   4.723522 H        1 UNL1     0.0309
     120 H         -3.742772   -2.572568   3.814182 H        1 UNL1     0.0309
     121 H         -3.065358   2.294361   1.191215 H        1 UNL1     0.0524
     122 H         -4.399609   3.443474   1.029445 H        1 UNL1     0.0524
     123 H         -2.880646   3.960216   1.8037 H        1 UNL1     0.0524
@<TRIPOS>BOND
     1     1     2    1
     2     1    42    1
     3     2     3    2
     4     3     4    1
     5     4     5    2
     6     5     7    1
     7     6    75    1
     8     6    76    1
     9     6    77    1
    10     7     9   am
    11     9    10    1
    12    10    11    2
    13    10    43    1
    14    11    14    1
    15    11    15    1
    16    12    13   ar
    17    12    27   ar
    18    12    43    1
    19    13    14    1
    20    13    30   ar
    21    14    17    2
    22    15    16    1
    23    16    17    1
    24    16    18    1
    25    16    22    1
    26    18    19    1
    27    19    20    1
    28    20    21    1
    29    21    22    1
    30    23    24    1
    31    23    88    1
    32    23    89    1
    33    24    25    1
    34    24    26    1
    35    24    90    1
    36    25    91    1
    37    25    92    1
    38    25    93    1
    39    26    94    1
    40    26    95    1
    41    26    96    1
    42    27    28   ar
    43    28    29   ar
    44    29    30   ar
    45    29    31    1
    46    30    33    1
    47    31    32    1
    48    32    33    1
    49    32    35    1
    50    34    97    1
    51    34    98    1
    52    34    99    1
    53    35    61    1
    54    36    37    1
    55    36    60    1
    56    37    38    1
    57    38    39    1
    58    39    40    1
    59    40    41    1
    60    41    42    1
    61    45   100    1
    62    47   101    1
    63    47   102    1
    64    47   103    1
    65    48   104    1
    66    49   105    1
    67    49   106    1
    68    49   107    1
    69    50   108    1
    70    51    59    1
    71    52   109    1
    72    52   110    1
    73    52   111    1
    74    53    54    1
    75    54    55    2
    76    54    56    1
    77    56   112    1
    78    56   113    1
    79    56   114    1
    80    57   115    1
    81    57   116    1
    82    57   117    1
    83    58   118    1
    84    58   119    1
    85    58   120    1
    86    59   121    1
    87    59   122    1
    88    59   123    1
    89    60    61    2
    90     1    47    1
    91     1    62    1
    92     2    63    1
    93     3    64    1
    94     4    65    1
    95     5     6    1
    96     7     8    2
    97     9    78    1
    98    15    79    1
    99    18    80    1
   100    18    81    1
   101    19    82    1
   102    19    83    1
   103    20    23    1
   104    21    84    1
   105    21    85    1
   106    22    86    1
   107    22    87    1
   108    27    45    1
   109    28    34    1
   110    32    58    1
   111    33    46    2
   112    36    51    1
   113    36    66    1
   114    37    52    1
   115    37    67    1
   116    38    53    1
   117    38    68    1
   118    42    48    1
   119    42    72    1
   120    43    44    2
   121    60    73    1
   122    61    74    1
   123    39    69    1
   124    39    57    1
   125    40    70    1
   126    40    50    1
   127    41    71    1
   128    41    49    1
