@<TRIPOS>MOLECULE
*****
 123 128 0 0 0
SMALL
GASTEIGER

@<TRIPOS>ATOM
     1 C         2.260542   -2.353866   -2.705599 C.3        1 UNL1     0.0009
     2 C         2.810588   -1.896999   -4.416085 C.2        1 UNL1     -0.0787
     3 C         2.679644   -2.020663   -5.852611 C.2        1 UNL1     -0.0649
     4 C         3.501204   -1.151653   -7.051034 C.2        1 UNL1     -0.0542
     5 C         3.487248   -0.749954   -8.409534 C.2        1 UNL1     0.0115
     6 C         2.783668   -0.968134   -9.777268 C.3        1 UNL1     -0.0348
     7 C         4.408606   0.483388   -8.864458 C.2        1 UNL1     0.2441
     8 O         5.471306   0.338573   -9.452864 O.2        1 UNL1     -0.2702
     9 N         3.791848   1.743496   -8.775636 N.am        1 UNL1     -0.2772
     10 C         3.975114   2.280543   -7.522115 C.2        1 UNL1     0.1049
     11 C         3.134696   1.876076   -6.587061 C.2        1 UNL1     0.0801
     12 C         5.728923   2.743814   -5.799655 C.ar        1 UNL1     0.0753
     13 C         4.861654   2.103877   -4.857882 C.ar        1 UNL1     0.0305
     14 C         3.4805   1.767193   -5.195681 C.2        1 UNL1     0.0924
     15 N         1.990096   1.180104   -6.696796 N.pl3        1 UNL1     -0.3170
     16 C         1.368084   1.14997   -5.399704 C.3        1 UNL1     0.1275
     17 N         2.516124   1.26874   -4.427273 N.2        1 UNL1     -0.2557
     18 C         0.557567   2.434644   -5.256962 C.3        1 UNL1     0.0016
     19 C         -0.418355   2.525631   -6.41924 C.3        1 UNL1     0.0026
     20 N         -1.28398   1.354657   -6.395967 N.3        1 UNL1     -0.3018
     21 C         -0.590074   0.067049   -6.466177 C.3        1 UNL1     0.0026
     22 C         0.381594   -0.004877   -5.286947 C.3        1 UNL1     0.0016
     23 C         -2.433174   1.485438   -7.269404 C.3        1 UNL1     0.0012
     24 C         -2.471499   2.884937   -7.903195 C.3        1 UNL1     -0.0339
     25 C         -3.525348   2.967984   -9.01969 C.3        1 UNL1     -0.0615
     26 C         -2.707963   3.935422   -6.832053 C.3        1 UNL1     -0.0615
     27 C         7.003216   3.170427   -5.433189 C.ar        1 UNL1     0.1347
     28 C         7.503572   3.048209   -4.14915 C.ar        1 UNL1     0.0342
     29 C         6.651071   2.371263   -3.251291 C.ar        1 UNL1     0.1435
     30 C         5.386329   1.906131   -3.613645 C.ar        1 UNL1     0.0774
     31 O         6.948777   2.26987   -1.937481 O.3        1 UNL1     -0.4436
     32 C         5.695789   1.971164   -1.303708 C.3        1 UNL1     0.3143
     33 C         4.838405   1.356171   -2.391315 C.2        1 UNL1     0.2504
     34 C         8.750577   3.702464   -3.622813 C.3        1 UNL1     -0.0327
     35 O         5.942265   0.943728   -0.335783 O.2        1 UNL1     -0.4528
     36 C         3.396977   1.485144   2.427633 C.3        1 UNL1     0.0854
     37 C         1.822978   1.52947   2.337721 C.3        1 UNL1     0.0236
     38 C         1.061406   0.50658   3.310062 C.3        1 UNL1     0.1131
     39 C         1.475178   -1.020148   3.322958 C.3        1 UNL1     0.0200
     40 C         1.763182   -1.829555   1.89315 C.3        1 UNL1     0.0661
     41 C         0.744228   -1.844274   0.537005 C.3        1 UNL1     0.0091
     42 C         1.143197   -1.956124   -1.250092 C.3        1 UNL1     0.0661
     43 C         5.193003   3.018782   -7.155915 C.2        1 UNL1     0.2131
     44 O         5.646598   3.87015   -7.898992 O.2        1 UNL1     -0.2851
     45 O         7.800965   3.742951   -6.421749 O.3        1 UNL1     -0.5056
     46 O         3.923515   0.571569   -2.276294 O.2        1 UNL1     -0.2836
     47 C         2.75256   -3.781185   -2.34413 C.3        1 UNL1     -0.0566
     48 O         0.132931   -3.005938   -1.526444 O.3        1 UNL1     -0.3909
     49 C         -0.288757   -0.750306   0.690854 C.3        1 UNL1     -0.0577
     50 O         3.106766   -1.665474   1.486231 O.3        1 UNL1     -0.3910
     51 O         3.940309   0.445964   3.210145 O.3        1 UNL1     -0.3753
     52 C         1.331203   1.814009   0.880963 C.3        1 UNL1     -0.0564
     53 O         -0.401214   0.803682   3.467534 O.3        1 UNL1     -0.4608
     54 C         -1.396257   -0.132931   3.570369 C.2        1 UNL1     0.3042
     55 O         -2.159837   -0.31035   4.518687 O.2        1 UNL1     -0.2512
     56 C         -1.562701   -0.971628   2.335218 C.3        1 UNL1     0.0332
     57 C         2.515964   -1.227667   4.519567 C.3        1 UNL1     -0.0567
     58 C         5.080048   3.328278   -0.89063 C.3        1 UNL1     0.0210
     59 C         4.501262   0.862827   4.4541 C.3        1 UNL1     0.0372
     60 C         4.100936   1.448455   1.11681 C.2        1 UNL1     -0.0208
     61 C         5.124594   0.698704   0.706025 C.2        1 UNL1     0.0882
     62 H         3.002748   -1.655187   -2.301012 H        1 UNL1     0.0365
     63 H         3.668024   -1.259437   -4.190726 H        1 UNL1     0.0576
     64 H         1.877436   -2.607272   -6.305888 H        1 UNL1     0.0615
     65 H         4.320159   -0.67087   -6.509145 H        1 UNL1     0.0622
     66 H         3.673994   2.442177   2.89174 H        1 UNL1     0.0645
     67 H         1.555949   2.501021   2.788658 H        1 UNL1     0.0362
     68 H         1.383675   0.904458   4.284413 H        1 UNL1     0.0741
     69 H         0.671193   -1.594923   3.763016 H        1 UNL1     0.0359
     70 H         1.708489   -2.875281   2.251655 H        1 UNL1     0.0600
     71 H         0.140204   -2.745881   0.758856 H        1 UNL1     0.0348
     72 H         2.031341   -2.325895   -0.717375 H        1 UNL1     0.0602
     73 H         3.747962   2.24378   0.50844 H        1 UNL1     0.0628
     74 H         5.507281   -0.169911   1.242956 H        1 UNL1     0.1022
     75 H         2.094361   -0.119152   -10.003364 H        1 UNL1     0.0279
     76 H         3.425514   -0.988928   -10.655145 H        1 UNL1     0.0279
     77 H         2.084934   -1.817446   -9.76537 H        1 UNL1     0.0279
     78 H         2.789547   1.644891   -8.92311 H        1 UNL1     0.1553
     79 H         1.470726   1.093317   -7.550995 H        1 UNL1     0.1484
     80 H         0.033234   2.421415   -4.293808 H        1 UNL1     0.0317
     81 H         1.21342   3.311775   -5.244779 H        1 UNL1     0.0317
     82 H         0.103807   2.61276   -7.383433 H        1 UNL1     0.0428
     83 H         -0.984706   3.449635   -6.298775 H        1 UNL1     0.0428
     84 H         -1.255735   -0.795961   -6.366572 H        1 UNL1     0.0428
     85 H         -0.103313   -0.082432   -7.439849 H        1 UNL1     0.0428
     86 H         0.771146   -1.005974   -5.2934 H        1 UNL1     0.0317
     87 H         -0.172162   0.045883   -4.341498 H        1 UNL1     0.0317
     88 H         -2.339342   0.741199   -8.071026 H        1 UNL1     0.0429
     89 H         -3.366871   1.266899   -6.73534 H        1 UNL1     0.0429
     90 H         -1.488656   3.111553   -8.33317 H        1 UNL1     0.0308
     91 H         -3.970086   3.966197   -9.073377 H        1 UNL1     0.0233
     92 H         -3.083218   2.719825   -9.987444 H        1 UNL1     0.0233
     93 H         -4.349535   2.260171   -8.869516 H        1 UNL1     0.0233
     94 H         -3.231838   3.492729   -5.977995 H        1 UNL1     0.0233
     95 H         -1.751284   4.326688   -6.474787 H        1 UNL1     0.0233
     96 H         -3.308742   4.765888   -7.213311 H        1 UNL1     0.0233
     97 H         8.545651   4.344001   -2.770953 H        1 UNL1     0.0280
     98 H         9.488257   2.967547   -3.274991 H        1 UNL1     0.0280
     99 H         9.207986   4.316556   -4.415759 H        1 UNL1     0.0280
     100 H         7.329064   4.05439   -7.174037 H        1 UNL1     0.2922
     101 H         3.54542   -3.719065   -1.599033 H        1 UNL1     0.0236
     102 H         3.053581   -4.363941   -3.214053 H        1 UNL1     0.0236
     103 H         1.962806   -4.382002   -1.862986 H        1 UNL1     0.0236
     104 H         -0.391948   -3.131915   -0.711826 H        1 UNL1     0.2098
     105 H         -1.303904   -1.053737   0.447507 H        1 UNL1     0.0234
     106 H         -0.26816   -0.236439   1.651814 H        1 UNL1     0.0234
     107 H         0.0   0.0   0.0 H        1 UNL1     0.0234
     108 H         3.227626   -2.185016   0.668162 H        1 UNL1     0.2098
     109 H         1.686824   2.78298   0.503681 H        1 UNL1     0.0234
     110 H         1.602234   1.023339   0.17306 H        1 UNL1     0.0234
     111 H         0.235331   1.857284   0.824945 H        1 UNL1     0.0234
     112 H         -1.689739   -2.022323   2.613152 H        1 UNL1     0.0342
     113 H         -2.389944   -0.628596   1.715668 H        1 UNL1     0.0342
     114 H         -0.643748   -0.889837   1.738559 H        1 UNL1     0.0342
     115 H         2.406835   -2.214972   4.989149 H        1 UNL1     0.0234
     116 H         3.561034   -1.118899   4.222837 H        1 UNL1     0.0234
     117 H         2.335213   -0.561127   5.380378 H        1 UNL1     0.0234
     118 H         5.075819   3.465342   0.204908 H        1 UNL1     0.0309
     119 H         5.576724   4.185104   -1.356853 H        1 UNL1     0.0309
     120 H         4.021049   3.408572   -1.159294 H        1 UNL1     0.0309
     121 H         5.257051   0.130569   4.736832 H        1 UNL1     0.0524
     122 H         5.000302   1.843416   4.38033 H        1 UNL1     0.0524
     123 H         3.728407   0.916933   5.215586 H        1 UNL1     0.0524
@<TRIPOS>BOND
     1     1     2    1
     2     1    42    1
     3     2     3    2
     4     3     4    1
     5     4     5    2
     6     5     7    1
     7     6    75    1
     8     6    76    1
     9     6    77    1
    10     7     9   am
    11     9    10    1
    12    10    11    2
    13    10    43    1
    14    11    14    1
    15    11    15    1
    16    12    13   ar
    17    12    27   ar
    18    12    43    1
    19    13    14    1
    20    13    30   ar
    21    14    17    2
    22    15    16    1
    23    16    17    1
    24    16    18    1
    25    16    22    1
    26    18    19    1
    27    19    20    1
    28    20    21    1
    29    21    22    1
    30    23    24    1
    31    23    88    1
    32    23    89    1
    33    24    25    1
    34    24    26    1
    35    24    90    1
    36    25    91    1
    37    25    92    1
    38    25    93    1
    39    26    94    1
    40    26    95    1
    41    26    96    1
    42    27    28   ar
    43    28    29   ar
    44    29    30   ar
    45    29    31    1
    46    30    33    1
    47    31    32    1
    48    32    33    1
    49    32    35    1
    50    34    97    1
    51    34    98    1
    52    34    99    1
    53    35    61    1
    54    36    37    1
    55    36    60    1
    56    37    38    1
    57    38    39    1
    58    39    40    1
    59    40    41    1
    60    41    42    1
    61    45   100    1
    62    47   101    1
    63    47   102    1
    64    47   103    1
    65    48   104    1
    66    49   105    1
    67    49   106    1
    68    49   107    1
    69    50   108    1
    70    51    59    1
    71    52   109    1
    72    52   110    1
    73    52   111    1
    74    53    54    1
    75    54    55    2
    76    54    56    1
    77    56   112    1
    78    56   113    1
    79    56   114    1
    80    57   115    1
    81    57   116    1
    82    57   117    1
    83    58   118    1
    84    58   119    1
    85    58   120    1
    86    59   121    1
    87    59   122    1
    88    59   123    1
    89    60    61    2
    90     1    47    1
    91     1    62    1
    92     2    63    1
    93     3    64    1
    94     4    65    1
    95     5     6    1
    96     7     8    2
    97     9    78    1
    98    15    79    1
    99    18    80    1
   100    18    81    1
   101    19    82    1
   102    19    83    1
   103    20    23    1
   104    21    84    1
   105    21    85    1
   106    22    86    1
   107    22    87    1
   108    27    45    1
   109    28    34    1
   110    32    58    1
   111    33    46    2
   112    36    51    1
   113    36    66    1
   114    37    52    1
   115    37    67    1
   116    38    53    1
   117    38    68    1
   118    42    48    1
   119    42    72    1
   120    43    44    2
   121    60    73    1
   122    61    74    1
   123    39    69    1
   124    39    57    1
   125    40    70    1
   126    40    50    1
   127    41    71    1
   128    41    49    1
