@<TRIPOS>MOLECULE
*****
 123 128 0 0 0
SMALL
GASTEIGER

@<TRIPOS>ATOM
     1 C         -1.101788   -4.691945   2.289239 C.3        1 UNL1     0.0009
     2 C         -2.246285   -6.150278   2.30991 C.2        1 UNL1     -0.0787
     3 C         -3.443131   -6.800823   2.800212 C.2        1 UNL1     -0.0649
     4 C         -4.106642   -8.274981   2.297251 C.2        1 UNL1     -0.0542
     5 C         -5.279429   -9.069029   2.263523 C.2        1 UNL1     0.0115
     6 C         -6.727767   -9.195112   2.811009 C.3        1 UNL1     -0.0348
     7 C         -5.36515   -10.284052   1.217884 C.2        1 UNL1     0.2441
     8 O         -5.202533   -11.452694   1.540928 O.2        1 UNL1     -0.2702
     9 N         -5.895665   -9.943477   -0.038584 N.am        1 UNL1     -0.2772
     10 C         -4.897616   -9.50576   -0.878598 C.2        1 UNL1     0.1049
     11 C         -4.547703   -8.238206   -0.755756 C.2        1 UNL1     0.0801
     12 C         -2.618324   -10.092894   -1.725615 C.ar        1 UNL1     0.0753
     13 C         -2.231371   -8.759448   -1.378054 C.ar        1 UNL1     0.0305
     14 C         -3.218522   -7.749223   -1.003848 C.2        1 UNL1     0.0924
     15 N         -5.146772   -7.237549   -0.087678 N.pl3        1 UNL1     -0.3170
     16 C         -4.458302   -6.017078   -0.414348 C.3        1 UNL1     0.1275
     17 N         -3.05336   -6.454087   -0.75033 N.2        1 UNL1     -0.2557
     18 C         -5.060712   -5.492064   -1.714027 C.3        1 UNL1     0.0016
     19 C         -6.56129   -5.335402   -1.526111 C.3        1 UNL1     0.0026
     20 N         -6.801028   -4.411039   -0.426518 N.3        1 UNL1     -0.3018
     21 C         -6.206351   -4.800284   0.853801 C.3        1 UNL1     0.0026
     22 C         -4.69845   -4.947501   0.642951 C.3        1 UNL1     0.0016
     23 C         -8.177308   -3.961938   -0.357199 C.3        1 UNL1     0.0012
     24 C         -8.831025   -4.012489   -1.747111 C.3        1 UNL1     -0.0339
     25 C         -7.923016   -3.387002   -2.818718 C.3        1 UNL1     -0.0615
     26 C         -9.20353   -5.443051   -2.095698 C.3        1 UNL1     -0.0615
     27 C         -1.686901   -11.015006   -2.197079 C.ar        1 UNL1     0.1347
     28 C         -0.352991   -10.709109   -2.399967 C.ar        1 UNL1     0.0342
     29 C         0.014658   -9.405321   -2.004826 C.ar        1 UNL1     0.1435
     30 C         -0.90038   -8.482265   -1.496995 C.ar        1 UNL1     0.0774
     31 O         1.253084   -8.920137   -2.241264 O.3        1 UNL1     -0.4436
     32 C         1.106996   -7.494715   -2.153492 C.3        1 UNL1     0.3143
     33 C         -0.125934   -7.274633   -1.300462 C.2        1 UNL1     0.2504
     34 C         0.645228   -11.560869   -3.133563 C.3        1 UNL1     -0.0327
     35 O         2.224668   -6.997094   -1.407545 O.2        1 UNL1     -0.4528
     36 C         2.877714   -3.496614   -2.722178 C.3        1 UNL1     0.0854
     37 C         1.903043   -2.258267   -2.785705 C.3        1 UNL1     0.0236
     38 C         2.450759   -0.929861   -2.073604 C.3        1 UNL1     0.1131
     39 C         3.000335   -1.002811   -0.59208 C.3        1 UNL1     0.0200
     40 C         2.183475   -1.877355   0.569967 C.3        1 UNL1     0.0661
     41 C         0.524711   -1.772445   0.909239 C.3        1 UNL1     0.0091
     42 C         -0.653439   -3.051074   1.494451 C.3        1 UNL1     0.0661
     43 C         -4.060545   -10.434773   -1.652292 C.2        1 UNL1     0.2131
     44 O         -4.565937   -11.356218   -2.267316 O.2        1 UNL1     -0.2851
     45 O         -2.137268   -12.305154   -2.469337 O.3        1 UNL1     -0.5056
     46 O         -0.39739   -6.325871   -0.599023 O.2        1 UNL1     -0.2836
     47 C         -0.249231   -4.657103   3.586125 C.3        1 UNL1     -0.0566
     48 O         -1.23874   -2.190954   2.551207 O.3        1 UNL1     -0.3909
     49 C         -0.157187   -1.025889   -0.215555 C.3        1 UNL1     -0.0577
     50 O         2.589002   -3.231261   0.555487 O.3        1 UNL1     -0.3910
     51 O         4.018285   -3.341758   -1.908207 O.3        1 UNL1     -0.3753
     52 C         0.403738   -2.692612   -2.694168 C.3        1 UNL1     -0.0564
     53 O         1.686521   0.307969   -2.442445 O.3        1 UNL1     -0.4608
     54 C         0.386591   0.571952   -2.098316 C.2        1 UNL1     0.3042
     55 O         -0.012772   1.242873   -1.147415 O.2        1 UNL1     -0.2512
     56 C         -0.617681   -0.001714   -3.056993 C.3        1 UNL1     0.0332
     57 C         4.588395   -1.174327   -0.674675 C.3        1 UNL1     -0.0567
     58 C         0.816657   -6.995606   -3.588108 C.3        1 UNL1     0.0210
     59 C         5.191199   -2.909127   -2.595934 C.3        1 UNL1     0.0372
     60 C         2.238143   -4.780543   -2.325143 C.2        1 UNL1     -0.0208
     61 C         2.640974   -5.717529   -1.465766 C.2        1 UNL1     0.0882
     62 H         -0.496371   -5.202113   1.530351 H        1 UNL1     0.0365
     63 H         -1.706356   -6.842039   1.659977 H        1 UNL1     0.0576
     64 H         -4.143845   -6.286831   3.461968 H        1 UNL1     0.0615
     65 H         -3.304567   -8.736625   1.714977 H        1 UNL1     0.0622
     66 H         3.214945   -3.635918   -3.75896 H        1 UNL1     0.0645
     67 H         1.917842   -1.959689   -3.848339 H        1 UNL1     0.0362
     68 H         3.33257   -0.734199   -2.702611 H        1 UNL1     0.0741
     69 H         3.009611   -0.004724   -0.174775 H        1 UNL1     0.0359
     70 H         2.647085   -1.459513   1.484043 H        1 UNL1     0.0600
     71 H         0.538454   -1.00147   1.704454 H        1 UNL1     0.0348
     72 H         0.350113   -3.429535   1.737282 H        1 UNL1     0.0602
     73 H         1.393352   -4.955909   -2.943869 H        1 UNL1     0.0628
     74 H         3.460202   -5.59286   -0.756851 H        1 UNL1     0.1022
     75 H         -7.45129   -9.347671   1.974186 H        1 UNL1     0.0279
     76 H         -6.9306   -10.048237   3.45452 H        1 UNL1     0.0279
     77 H         -7.099294   -8.257905   3.25068 H        1 UNL1     0.0279
     78 H         -6.56309   -9.182228   0.066882 H        1 UNL1     0.1553
     79 H         -6.106588   -7.258961   0.20426 H        1 UNL1     0.1484
     80 H         -4.586788   -4.53599   -1.967175 H        1 UNL1     0.0317
     81 H         -4.853254   -6.174527   -2.545205 H        1 UNL1     0.0317
     82 H         -7.052003   -6.302859   -1.344065 H        1 UNL1     0.0428
     83 H         -6.970926   -4.961796   -2.465083 H        1 UNL1     0.0428
     84 H         -6.332927   -4.051514   1.641921 H        1 UNL1     0.0428
     85 H         -6.677588   -5.703408   1.26565 H        1 UNL1     0.0428
     86 H         -4.282832   -5.100679   1.621616 H        1 UNL1     0.0317
     87 H         -4.26813   -3.987743   0.331845 H        1 UNL1     0.0317
     88 H         -8.724434   -4.639574   0.3112 H        1 UNL1     0.0429
     89 H         -8.247203   -2.956243   0.076928 H        1 UNL1     0.0429
     90 H         -9.774907   -3.455177   -1.720589 H        1 UNL1     0.0308
     91 H         -7.381494   -4.155154   -3.378895 H        1 UNL1     0.0233
     92 H         -8.507745   -2.780882   -3.514649 H        1 UNL1     0.0233
     93 H         -7.169364   -2.716648   -2.388054 H        1 UNL1     0.0233
     94 H         -10.259304   -5.624782   -1.867333 H        1 UNL1     0.0233
     95 H         -9.054963   -5.617871   -3.164963 H        1 UNL1     0.0233
     96 H         -8.599813   -6.160924   -1.533424 H        1 UNL1     0.0233
     97 H         0.660645   -12.581381   -2.76269 H        1 UNL1     0.0280
     98 H         0.418511   -11.633973   -4.205249 H        1 UNL1     0.0280
     99 H         1.654272   -11.13393   -3.012528 H        1 UNL1     0.0280
     100 H         -1.973968   -12.929537   -1.784428 H        1 UNL1     0.2922
     101 H         -0.454064   -5.544447   4.184724 H        1 UNL1     0.0236
     102 H         -0.377152   -3.739048   4.158658 H        1 UNL1     0.0236
     103 H         0.831582   -4.706878   3.372678 H        1 UNL1     0.0236
     104 H         -0.987176   -1.267701   2.352988 H        1 UNL1     0.2098
     105 H         0.254619   -1.225574   -1.201635 H        1 UNL1     0.0234
     106 H         -1.242776   -1.121371   -0.233107 H        1 UNL1     0.0234
     107 H         0.0   0.0   0.0 H        1 UNL1     0.0234
     108 H         2.30605   -3.609719   -0.299193 H        1 UNL1     0.2098
     109 H         0.236729   -3.699489   -3.10162 H        1 UNL1     0.0234
     110 H         0.001002   -2.637479   -1.67706 H        1 UNL1     0.0234
     111 H         -0.247112   -2.025307   -3.274723 H        1 UNL1     0.0234
     112 H         -0.543367   0.507454   -4.02269 H        1 UNL1     0.0342
     113 H         -0.504199   -1.078488   -3.173283 H        1 UNL1     0.0342
     114 H         -1.622529   0.185499   -2.654009 H        1 UNL1     0.0342
     115 H         5.042337   -0.448227   -1.363082 H        1 UNL1     0.0234
     116 H         5.096062   -1.076824   0.286999 H        1 UNL1     0.0234
     117 H         4.904715   -2.127777   -1.131638 H        1 UNL1     0.0234
     118 H         1.719583   -7.011539   -4.223306 H        1 UNL1     0.0309
     119 H         0.019157   -7.556994   -4.085139 H        1 UNL1     0.0309
     120 H         0.508687   -5.944593   -3.613252 H        1 UNL1     0.0309
     121 H         5.133288   -1.825728   -2.697179 H        1 UNL1     0.0524
     122 H         6.113273   -3.141542   -2.037542 H        1 UNL1     0.0524
     123 H         5.245597   -3.374794   -3.575877 H        1 UNL1     0.0524
@<TRIPOS>BOND
     1     1     2    1
     2     1    42    1
     3     2     3    2
     4     3     4    1
     5     4     5    2
     6     5     7    1
     7     6    75    1
     8     6    76    1
     9     6    77    1
    10     7     9   am
    11     9    10    1
    12    10    11    2
    13    10    43    1
    14    11    14    1
    15    11    15    1
    16    12    13   ar
    17    12    27   ar
    18    12    43    1
    19    13    14    1
    20    13    30   ar
    21    14    17    2
    22    15    16    1
    23    16    17    1
    24    16    18    1
    25    16    22    1
    26    18    19    1
    27    19    20    1
    28    20    21    1
    29    21    22    1
    30    23    24    1
    31    23    88    1
    32    23    89    1
    33    24    25    1
    34    24    26    1
    35    24    90    1
    36    25    91    1
    37    25    92    1
    38    25    93    1
    39    26    94    1
    40    26    95    1
    41    26    96    1
    42    27    28   ar
    43    28    29   ar
    44    29    30   ar
    45    29    31    1
    46    30    33    1
    47    31    32    1
    48    32    33    1
    49    32    35    1
    50    34    97    1
    51    34    98    1
    52    34    99    1
    53    35    61    1
    54    36    37    1
    55    36    60    1
    56    37    38    1
    57    38    39    1
    58    39    40    1
    59    40    41    1
    60    41    42    1
    61    45   100    1
    62    47   101    1
    63    47   102    1
    64    47   103    1
    65    48   104    1
    66    49   105    1
    67    49   106    1
    68    49   107    1
    69    50   108    1
    70    51    59    1
    71    52   109    1
    72    52   110    1
    73    52   111    1
    74    53    54    1
    75    54    55    2
    76    54    56    1
    77    56   112    1
    78    56   113    1
    79    56   114    1
    80    57   115    1
    81    57   116    1
    82    57   117    1
    83    58   118    1
    84    58   119    1
    85    58   120    1
    86    59   121    1
    87    59   122    1
    88    59   123    1
    89    60    61    2
    90     1    47    1
    91     1    62    1
    92     2    63    1
    93     3    64    1
    94     4    65    1
    95     5     6    1
    96     7     8    2
    97     9    78    1
    98    15    79    1
    99    18    80    1
   100    18    81    1
   101    19    82    1
   102    19    83    1
   103    20    23    1
   104    21    84    1
   105    21    85    1
   106    22    86    1
   107    22    87    1
   108    27    45    1
   109    28    34    1
   110    32    58    1
   111    33    46    2
   112    36    51    1
   113    36    66    1
   114    37    52    1
   115    37    67    1
   116    38    53    1
   117    38    68    1
   118    42    48    1
   119    42    72    1
   120    43    44    2
   121    60    73    1
   122    61    74    1
   123    39    69    1
   124    39    57    1
   125    40    70    1
   126    40    50    1
   127    41    71    1
   128    41    49    1
