@<TRIPOS>MOLECULE
*****
 123 128 0 0 0
SMALL
GASTEIGER

@<TRIPOS>ATOM
     1 C         3.678242   -2.09266   -2.321718 C.3        1 UNL1     0.0009
     2 C         4.586756   -1.707554   -3.891219 C.2        1 UNL1     -0.0787
     3 C         4.962874   -2.060928   -5.243886 C.2        1 UNL1     -0.0649
     4 C         5.83285   -1.13018   -6.358877 C.2        1 UNL1     -0.0542
     5 C         6.136514   -0.944869   -7.7302 C.2        1 UNL1     0.0115
     6 C         6.001786   -1.575627   -9.143464 C.3        1 UNL1     -0.0348
     7 C         6.753198   0.458617   -8.206558 C.2        1 UNL1     0.2441
     8 O         7.941486   0.614269   -8.452061 O.2        1 UNL1     -0.2702
     9 N         5.801472   1.425746   -8.574023 N.am        1 UNL1     -0.2772
     10 C         5.410464   2.15633   -7.475533 C.2        1 UNL1     0.1049
     11 C         4.472128   1.614738   -6.720268 C.2        1 UNL1     0.0801
     12 C         6.30781   3.427051   -5.516612 C.ar        1 UNL1     0.0753
     13 C         5.411725   2.65851   -4.7073 C.ar        1 UNL1     0.0305
     14 C         4.371942   1.820868   -5.300814 C.2        1 UNL1     0.0924
     15 N         3.677632   0.556495   -6.955691 N.pl3        1 UNL1     -0.3170
     16 C         2.711728   0.486839   -5.891533 C.3        1 UNL1     0.1275
     17 N         3.402349   1.12659   -4.711921 N.2        1 UNL1     -0.2557
     18 C         1.5609   1.41671   -6.263874 C.3        1 UNL1     0.0016
     19 C         1.024943   1.005888   -7.626065 C.3        1 UNL1     0.0026
     20 N         0.578025   -0.378387   -7.554834 N.3        1 UNL1     -0.3018
     21 C         1.601405   -1.341737   -7.143714 C.3        1 UNL1     0.0026
     22 C         2.122565   -0.912424   -5.771133 C.3        1 UNL1     0.0016
     23 C         -0.217923   -0.773636   -8.699775 C.3        1 UNL1     0.0012
     24 C         0.605208   -1.65976   -9.647928 C.3        1 UNL1     -0.0339
     25 C         0.695189   -3.104905   -9.130707 C.3        1 UNL1     -0.0615
     26 C         0.023749   -1.602984   -11.049877 C.3        1 UNL1     -0.0615
     27 C         7.215871   4.314884   -4.944515 C.ar        1 UNL1     0.1347
     28 C         7.293195   4.547893   -3.58298 C.ar        1 UNL1     0.0342
     29 C         6.435217   3.744232   -2.802488 C.ar        1 UNL1     0.1435
     30 C         5.545682   2.824522   -3.359335 C.ar        1 UNL1     0.0774
     31 O         6.314213   3.930175   -1.4699 O.3        1 UNL1     -0.4436
     32 C         5.06907   3.302916   -1.127792 C.3        1 UNL1     0.3143
     33 C         4.821904   2.288132   -2.225669 C.2        1 UNL1     0.2504
     34 C         8.059326   5.659001   -2.920725 C.3        1 UNL1     -0.0327
     35 O         5.282005   2.565158   0.082011 O.2        1 UNL1     -0.4528
     36 C         1.947334   2.554964   1.895284 C.3        1 UNL1     0.0854
     37 C         0.54355   2.037252   1.396397 C.3        1 UNL1     0.0236
     38 C         -0.155378   0.95414   2.350395 C.3        1 UNL1     0.1131
     39 C         0.658523   -0.31726   2.823023 C.3        1 UNL1     0.0200
     40 C         1.610142   -1.1606   1.743376 C.3        1 UNL1     0.0661
     41 C         1.128009   -1.710532   0.212778 C.3        1 UNL1     0.0091
     42 C         2.090414   -1.915997   -1.335435 C.3        1 UNL1     0.0661
     43 C         6.176942   3.313737   -6.990482 C.2        1 UNL1     0.2131
     44 O         6.574966   4.161509   -7.768683 O.2        1 UNL1     -0.2851
     45 O         8.083824   4.990424   -5.799934 O.3        1 UNL1     -0.5056
     46 O         4.188715   1.257646   -2.170669 O.2        1 UNL1     -0.2836
     47 C         4.422568   -3.197763   -1.525032 C.3        1 UNL1     -0.0566
     48 O         1.573311   -3.278356   -1.610572 O.3        1 UNL1     -0.3909
     49 C         -0.171432   -1.03343   -0.162027 C.3        1 UNL1     -0.0577
     50 O         2.903862   -0.59631   1.668607 O.3        1 UNL1     -0.3910
     51 O         2.490555   1.884499   3.010102 O.3        1 UNL1     -0.3753
     52 C         0.48176   1.934644   -0.162642 C.3        1 UNL1     -0.0564
     53 O         -1.611267   0.742962   2.053551 O.3        1 UNL1     -0.4608
     54 C         -2.618584   0.730989   2.982581 C.2        1 UNL1     0.3042
     55 O         -3.197819   -0.251782   3.443544 O.2        1 UNL1     -0.2512
     56 C         -2.975385   2.095278   3.500389 C.3        1 UNL1     0.0332
     57 C         1.275985   0.012562   4.261123 C.3        1 UNL1     -0.0567
     58 C         3.986574   4.404017   -1.213291 C.3        1 UNL1     0.0210
     59 C         2.370662   2.584634   4.24756 C.3        1 UNL1     0.0372
     60 C         3.010993   2.589225   0.854795 C.2        1 UNL1     -0.0208
     61 C         4.283677   2.19379   0.906278 C.2        1 UNL1     0.0882
     62 H         4.014998   -1.132045   -1.913641 H        1 UNL1     0.0365
     63 H         5.102407   -0.787725   -3.607516 H        1 UNL1     0.0576
     64 H         4.55488   -2.944926   -5.739058 H        1 UNL1     0.0615
     65 H         6.25852   -0.326662   -5.751714 H        1 UNL1     0.0622
     66 H         1.770289   3.601751   2.179779 H        1 UNL1     0.0645
     67 H         -0.124185   2.906756   1.525442 H        1 UNL1     0.0362
     68 H         -0.291433   1.566323   3.254962 H        1 UNL1     0.0741
     69 H         -0.039452   -1.070795   3.162765 H        1 UNL1     0.0359
     70 H         1.751166   -2.101878   2.308325 H        1 UNL1     0.0600
     71 H         0.775199   -2.727255   0.474994 H        1 UNL1     0.0348
     72 H         2.829236   -1.879027   -0.521745 H        1 UNL1     0.0602
     73 H         2.654961   3.122919   0.008828 H        1 UNL1     0.0628
     74 H         4.710648   1.592797   1.709858 H        1 UNL1     0.1022
     75 H         5.396053   -2.512692   -9.098407 H        1 UNL1     0.0279
     76 H         5.469465   -0.988168   -9.888177 H        1 UNL1     0.0279
     77 H         6.958107   -1.954186   -9.533136 H        1 UNL1     0.0279
     78 H         4.973293   0.966242   -8.94692 H        1 UNL1     0.1553
     79 H         3.506961   0.180702   -7.870341 H        1 UNL1     0.1484
     80 H         0.784675   1.351779   -5.491847 H        1 UNL1     0.0317
     81 H         1.892938   2.460186   -6.287531 H        1 UNL1     0.0317
     82 H         1.778009   1.138508   -8.416771 H        1 UNL1     0.0428
     83 H         0.206515   1.682864   -7.872907 H        1 UNL1     0.0428
     84 H         1.220751   -2.360485   -7.020973 H        1 UNL1     0.0428
     85 H         2.394509   -1.442273   -7.897502 H        1 UNL1     0.0428
     86 H         2.767641   -1.707032   -5.444845 H        1 UNL1     0.0317
     87 H         1.306807   -0.930572   -5.038122 H        1 UNL1     0.0317
     88 H         -1.075638   -1.354068   -8.335468 H        1 UNL1     0.0429
     89 H         -0.621619   0.101028   -9.22586 H        1 UNL1     0.0429
     90 H         1.620552   -1.253731   -9.728112 H        1 UNL1     0.0308
     91 H         0.803198   -3.131782   -8.042262 H        1 UNL1     0.0233
     92 H         -0.192519   -3.673696   -9.417169 H        1 UNL1     0.0233
     93 H         1.552887   -3.645519   -9.548948 H        1 UNL1     0.0233
     94 H         -0.917765   -2.161269   -11.091175 H        1 UNL1     0.0233
     95 H         -0.186975   -0.565813   -11.325256 H        1 UNL1     0.0233
     96 H         0.711558   -2.030557   -11.78477 H        1 UNL1     0.0233
     97 H         8.278284   6.4697   -3.609242 H        1 UNL1     0.0280
     98 H         7.498949   6.111476   -2.092173 H        1 UNL1     0.0280
     99 H         9.014019   5.268382   -2.532042 H        1 UNL1     0.0280
     100 H         8.262722   4.543896   -6.60878 H        1 UNL1     0.2922
     101 H         4.116034   -4.179844   -1.884488 H        1 UNL1     0.0236
     102 H         4.304291   -3.101856   -0.446239 H        1 UNL1     0.0236
     103 H         5.51218   -3.166128   -1.69218 H        1 UNL1     0.0236
     104 H         1.256206   -3.649979   -0.76422 H        1 UNL1     0.2098
     105 H         -0.462135   -1.163511   -1.201442 H        1 UNL1     0.0234
     106 H         -1.009889   -1.261088   0.496069 H        1 UNL1     0.0234
     107 H         0.0   0.0   0.0 H        1 UNL1     0.0234
     108 H         3.203538   -0.679405   0.742833 H        1 UNL1     0.2098
     109 H         -0.358805   1.315433   -0.505775 H        1 UNL1     0.0234
     110 H         0.443193   2.911277   -0.657054 H        1 UNL1     0.0234
     111 H         1.384859   1.46383   -0.573365 H        1 UNL1     0.0234
     112 H         -3.442839   2.008746   4.485957 H        1 UNL1     0.0342
     113 H         -2.11277   2.759061   3.534021 H        1 UNL1     0.0342
     114 H         -3.71128   2.540171   2.816508 H        1 UNL1     0.0342
     115 H         0.560253   0.548327   4.899772 H        1 UNL1     0.0234
     116 H         1.612769   -0.867767   4.812165 H        1 UNL1     0.0234
     117 H         2.111395   0.732862   4.226498 H        1 UNL1     0.0234
     118 H         3.169726   4.129658   -1.903575 H        1 UNL1     0.0309
     119 H         3.560205   4.663886   -0.239187 H        1 UNL1     0.0309
     120 H         4.370588   5.339134   -1.635423 H        1 UNL1     0.0309
     121 H         1.963719   1.889606   4.981516 H        1 UNL1     0.0524
     122 H         3.345383   2.934492   4.626447 H        1 UNL1     0.0524
     123 H         1.709462   3.438974   4.133494 H        1 UNL1     0.0524
@<TRIPOS>BOND
     1     1     2    1
     2     1    42    1
     3     2     3    2
     4     3     4    1
     5     4     5    2
     6     5     7    1
     7     6    75    1
     8     6    76    1
     9     6    77    1
    10     7     9   am
    11     9    10    1
    12    10    11    2
    13    10    43    1
    14    11    14    1
    15    11    15    1
    16    12    13   ar
    17    12    27   ar
    18    12    43    1
    19    13    14    1
    20    13    30   ar
    21    14    17    2
    22    15    16    1
    23    16    17    1
    24    16    18    1
    25    16    22    1
    26    18    19    1
    27    19    20    1
    28    20    21    1
    29    21    22    1
    30    23    24    1
    31    23    88    1
    32    23    89    1
    33    24    25    1
    34    24    26    1
    35    24    90    1
    36    25    91    1
    37    25    92    1
    38    25    93    1
    39    26    94    1
    40    26    95    1
    41    26    96    1
    42    27    28   ar
    43    28    29   ar
    44    29    30   ar
    45    29    31    1
    46    30    33    1
    47    31    32    1
    48    32    33    1
    49    32    35    1
    50    34    97    1
    51    34    98    1
    52    34    99    1
    53    35    61    1
    54    36    37    1
    55    36    60    1
    56    37    38    1
    57    38    39    1
    58    39    40    1
    59    40    41    1
    60    41    42    1
    61    45   100    1
    62    47   101    1
    63    47   102    1
    64    47   103    1
    65    48   104    1
    66    49   105    1
    67    49   106    1
    68    49   107    1
    69    50   108    1
    70    51    59    1
    71    52   109    1
    72    52   110    1
    73    52   111    1
    74    53    54    1
    75    54    55    2
    76    54    56    1
    77    56   112    1
    78    56   113    1
    79    56   114    1
    80    57   115    1
    81    57   116    1
    82    57   117    1
    83    58   118    1
    84    58   119    1
    85    58   120    1
    86    59   121    1
    87    59   122    1
    88    59   123    1
    89    60    61    2
    90     1    47    1
    91     1    62    1
    92     2    63    1
    93     3    64    1
    94     4    65    1
    95     5     6    1
    96     7     8    2
    97     9    78    1
    98    15    79    1
    99    18    80    1
   100    18    81    1
   101    19    82    1
   102    19    83    1
   103    20    23    1
   104    21    84    1
   105    21    85    1
   106    22    86    1
   107    22    87    1
   108    27    45    1
   109    28    34    1
   110    32    58    1
   111    33    46    2
   112    36    51    1
   113    36    66    1
   114    37    52    1
   115    37    67    1
   116    38    53    1
   117    38    68    1
   118    42    48    1
   119    42    72    1
   120    43    44    2
   121    60    73    1
   122    61    74    1
   123    39    69    1
   124    39    57    1
   125    40    70    1
   126    40    50    1
   127    41    71    1
   128    41    49    1
