@<TRIPOS>MOLECULE
*****
 123 128 0 0 0
SMALL
GASTEIGER

@<TRIPOS>ATOM
     1 C         3.424315   2.475624   -1.854583 C.3        1 UNL1     0.0009
     2 C         3.581717   4.109279   -2.71681 C.2        1 UNL1     -0.0787
     3 C         3.466391   4.913255   -3.915296 C.2        1 UNL1     -0.0649
     4 C         3.668573   6.58714   -4.068886 C.2        1 UNL1     -0.0542
     5 C         3.387356   7.722016   -4.868918 C.2        1 UNL1     0.0115
     6 C         2.83308   8.183351   -6.24488 C.3        1 UNL1     -0.0348
     7 C         3.522462   9.183563   -4.218827 C.2        1 UNL1     0.2441
     8 O         4.480116   9.916813   -4.423204 O.2        1 UNL1     -0.2702
     9 N         2.351093   9.668656   -3.611597 N.am        1 UNL1     -0.2772
     10 C         2.29051   9.267927   -2.296657 C.2        1 UNL1     0.1049
     11 C         1.821431   8.05258   -2.079591 C.2        1 UNL1     0.0801
     12 C         3.635291   9.166909   -0.189836 C.ar        1 UNL1     0.0753
     13 C         3.264421   7.786689   -0.111998 C.ar        1 UNL1     0.0305
     14 C         2.238172   7.219799   -0.984064 C.2        1 UNL1     0.0924
     15 N         1.192933   7.207348   -2.914517 N.pl3        1 UNL1     -0.3170
     16 C         0.735583   6.084027   -2.140413 C.3        1 UNL1     0.1275
     17 N         1.703408   6.002033   -0.985287 N.2        1 UNL1     -0.2557
     18 C         -0.611924   6.469063   -1.53736 C.3        1 UNL1     0.0016
     19 C         -1.548773   6.879379   -2.662324 C.3        1 UNL1     0.0026
     20 N         -1.688167   5.762025   -3.585967 N.3        1 UNL1     -0.3018
     21 C         -0.435709   5.279395   -4.171449 C.3        1 UNL1     0.0026
     22 C         0.488494   4.868346   -3.023937 C.3        1 UNL1     0.0016
     23 C         -2.780524   5.937252   -4.522287 C.3        1 UNL1     0.0012
     24 C         -3.011107   7.429603   -4.807732 C.3        1 UNL1     -0.0339
     25 C         -3.850009   7.635814   -6.07965 C.3        1 UNL1     -0.0615
     26 C         -3.649669   8.097756   -3.602498 C.3        1 UNL1     -0.0615
     27 C         4.525129   9.727755   0.723267 C.ar        1 UNL1     0.1347
     28 C         5.076169   9.020708   1.777065 C.ar        1 UNL1     0.0342
     29 C         4.734918   7.651788   1.804791 C.ar        1 UNL1     0.1435
     30 C         3.873233   7.067797   0.875451 C.ar        1 UNL1     0.0774
     31 O         5.103003   6.854365   2.831259 O.3        1 UNL1     -0.4436
     32 C         4.212133   5.731209   2.755473 C.3        1 UNL1     0.3143
     33 C         3.742809   5.69432   1.31513 C.2        1 UNL1     0.2504
     34 C         5.833155   9.610339   2.934393 C.3        1 UNL1     -0.0327
     35 O         4.995764   4.550758   2.969275 O.2        1 UNL1     -0.4528
     36 C         2.664973   2.034888   4.595898 C.3        1 UNL1     0.0854
     37 C         1.289346   1.467892   4.072746 C.3        1 UNL1     0.0236
     38 C         1.207092   -0.131238   3.984634 C.3        1 UNL1     0.1131
     39 C         2.346146   -0.936066   3.238258 C.3        1 UNL1     0.0200
     40 C         2.942211   -0.397374   1.776425 C.3        1 UNL1     0.0661
     41 C         2.013775   0.054453   0.430517 C.3        1 UNL1     0.0091
     42 C         2.330185   1.314631   -0.864565 C.3        1 UNL1     0.0661
     43 C         2.971999   10.003159   -1.220849 C.2        1 UNL1     0.2131
     44 O         2.889062   11.216082   -1.152466 O.2        1 UNL1     -0.2851
     45 O         4.868875   11.066858   0.549826 O.3        1 UNL1     -0.5056
     46 O         3.36707   4.741717   0.669204 O.2        1 UNL1     -0.2836
     47 C         4.595539   1.539028   -2.255836 C.3        1 UNL1     -0.0566
     48 O         1.990747   0.409437   -1.989074 O.3        1 UNL1     -0.3909
     49 C         0.574079   0.218898   0.863792 C.3        1 UNL1     -0.0577
     50 O         3.990355   0.530092   1.973722 O.3        1 UNL1     -0.3910
     51 O         3.700399   1.091196   4.753279 O.3        1 UNL1     -0.3753
     52 C         0.654305   2.394084   2.984701 C.3        1 UNL1     -0.0564
     53 O         -0.191416   -0.652984   3.828808 O.3        1 UNL1     -0.4608
     54 C         -1.126341   -0.171647   2.950081 C.2        1 UNL1     0.3042
     55 O         -0.949014   0.63627   2.039222 O.2        1 UNL1     -0.2512
     56 C         -2.489881   -0.775177   3.132357 C.3        1 UNL1     0.0332
     57 C         3.400002   -1.415736   4.341651 C.3        1 UNL1     -0.0567
     58 C         3.006865   6.066793   3.664451 C.3        1 UNL1     0.0210
     59 C         3.989737   0.738718   6.10528 C.3        1 UNL1     0.0372
     60 C         3.226214   3.158819   3.797807 C.2        1 UNL1     -0.0208
     61 C         4.46926   3.376362   3.366233 C.2        1 UNL1     0.0882
     62 H         3.720302   2.963163   -0.917882 H        1 UNL1     0.0365
     63 H         3.99951   4.722795   -1.915863 H        1 UNL1     0.0576
     64 H         3.059189   4.503624   -4.842386 H        1 UNL1     0.0615
     65 H         4.148573   6.878825   -3.130801 H        1 UNL1     0.0622
     66 H         2.432465   2.454254   5.584897 H        1 UNL1     0.0645
     67 H         0.582601   1.67909   4.894005 H        1 UNL1     0.0362
     68 H         1.324125   -0.380443   5.050337 H        1 UNL1     0.0741
     69 H         1.972775   -1.921495   2.993445 H        1 UNL1     0.0359
     70 H         3.448911   -1.317095   1.426526 H        1 UNL1     0.0600
     71 H         1.969436   -0.912908   -0.107259 H        1 UNL1     0.0348
     72 H         3.305767   1.1016   -0.403943 H        1 UNL1     0.0602
     73 H         2.487183   3.913355   3.68938 H        1 UNL1     0.0628
     74 H         5.268069   2.634273   3.387312 H        1 UNL1     0.1022
     75 H         2.237853   9.121568   -6.133133 H        1 UNL1     0.0279
     76 H         3.569134   8.460961   -6.99603 H        1 UNL1     0.0279
     77 H         2.078076   7.494777   -6.651742 H        1 UNL1     0.0279
     78 H         1.536051   9.285997   -4.086314 H        1 UNL1     0.1553
     79 H         0.752851   7.493635   -3.769678 H        1 UNL1     0.1484
     80 H         -1.009742   5.614802   -0.976338 H        1 UNL1     0.0317
     81 H         -0.499755   7.289809   -0.820808 H        1 UNL1     0.0317
     82 H         -1.190807   7.780284   -3.182076 H        1 UNL1     0.0428
     83 H         -2.502908   7.151611   -2.210035 H        1 UNL1     0.0428
     84 H         -0.558348   4.390632   -4.798242 H        1 UNL1     0.0428
     85 H         0.012973   6.021717   -4.845956 H        1 UNL1     0.0428
     86 H         1.336009   4.39944   -3.488516 H        1 UNL1     0.0317
     87 H         0.031787   4.053993   -2.448313 H        1 UNL1     0.0317
     88 H         -2.507854   5.439708   -5.462179 H        1 UNL1     0.0429
     89 H         -3.698224   5.457217   -4.158742 H        1 UNL1     0.0429
     90 H         -2.041623   7.923014   -4.945061 H        1 UNL1     0.0308
     91 H         -3.310718   8.235647   -6.818885 H        1 UNL1     0.0233
     92 H         -4.119243   6.675103   -6.524799 H        1 UNL1     0.0233
     93 H         -4.794874   8.154543   -5.877201 H        1 UNL1     0.0233
     94 H         -3.689747   9.182527   -3.749135 H        1 UNL1     0.0233
     95 H         -4.674002   7.736835   -3.474281 H        1 UNL1     0.0233
     96 H         -3.086264   7.893279   -2.687767 H        1 UNL1     0.0233
     97 H         6.738947   9.053445   3.154937 H        1 UNL1     0.0280
     98 H         6.154832   10.64115   2.736381 H        1 UNL1     0.0280
     99 H         5.195934   9.603929   3.83384 H        1 UNL1     0.0280
     100 H         4.212415   11.679297   0.831962 H        1 UNL1     0.2922
     101 H         4.395533   1.097719   -3.232002 H        1 UNL1     0.0236
     102 H         4.817277   0.783317   -1.50303 H        1 UNL1     0.0236
     103 H         5.541145   2.091186   -2.386766 H        1 UNL1     0.0236
     104 H         1.860238   -0.485298   -1.618415 H        1 UNL1     0.2098
     105 H         0.261789   -0.461493   1.652053 H        1 UNL1     0.0234
     106 H         0.286837   1.240798   1.111057 H        1 UNL1     0.0234
     107 H         0.0   0.0   0.0 H        1 UNL1     0.0234
     108 H         3.597553   1.331938   2.369344 H        1 UNL1     0.2098
     109 H         1.295111   2.493419   2.097452 H        1 UNL1     0.0234
     110 H         -0.347783   2.074516   2.679021 H        1 UNL1     0.0234
     111 H         0.505214   3.415465   3.359533 H        1 UNL1     0.0234
     112 H         -3.062792   -0.18836   3.856765 H        1 UNL1     0.0342
     113 H         -3.027465   -0.864741   2.189582 H        1 UNL1     0.0342
     114 H         -2.365251   -1.787058   3.541904 H        1 UNL1     0.0342
     115 H         3.271585   -2.477134   4.594891 H        1 UNL1     0.0234
     116 H         4.442739   -1.271066   4.052136 H        1 UNL1     0.0234
     117 H         3.251341   -0.942006   5.327258 H        1 UNL1     0.0234
     118 H         2.569993   7.052486   3.426631 H        1 UNL1     0.0309
     119 H         2.218622   5.308036   3.630328 H        1 UNL1     0.0309
     120 H         3.289336   6.1634   4.718483 H        1 UNL1     0.0309
     121 H         5.058378   0.88284   6.262098 H        1 UNL1     0.0524
     122 H         3.458653   1.380559   6.827794 H        1 UNL1     0.0524
     123 H         3.720237   -0.297397   6.289483 H        1 UNL1     0.0524
@<TRIPOS>BOND
     1     1     2    1
     2     1    42    1
     3     2     3    2
     4     3     4    1
     5     4     5    2
     6     5     7    1
     7     6    75    1
     8     6    76    1
     9     6    77    1
    10     7     9   am
    11     9    10    1
    12    10    11    2
    13    10    43    1
    14    11    14    1
    15    11    15    1
    16    12    13   ar
    17    12    27   ar
    18    12    43    1
    19    13    14    1
    20    13    30   ar
    21    14    17    2
    22    15    16    1
    23    16    17    1
    24    16    18    1
    25    16    22    1
    26    18    19    1
    27    19    20    1
    28    20    21    1
    29    21    22    1
    30    23    24    1
    31    23    88    1
    32    23    89    1
    33    24    25    1
    34    24    26    1
    35    24    90    1
    36    25    91    1
    37    25    92    1
    38    25    93    1
    39    26    94    1
    40    26    95    1
    41    26    96    1
    42    27    28   ar
    43    28    29   ar
    44    29    30   ar
    45    29    31    1
    46    30    33    1
    47    31    32    1
    48    32    33    1
    49    32    35    1
    50    34    97    1
    51    34    98    1
    52    34    99    1
    53    35    61    1
    54    36    37    1
    55    36    60    1
    56    37    38    1
    57    38    39    1
    58    39    40    1
    59    40    41    1
    60    41    42    1
    61    45   100    1
    62    47   101    1
    63    47   102    1
    64    47   103    1
    65    48   104    1
    66    49   105    1
    67    49   106    1
    68    49   107    1
    69    50   108    1
    70    51    59    1
    71    52   109    1
    72    52   110    1
    73    52   111    1
    74    53    54    1
    75    54    55    2
    76    54    56    1
    77    56   112    1
    78    56   113    1
    79    56   114    1
    80    57   115    1
    81    57   116    1
    82    57   117    1
    83    58   118    1
    84    58   119    1
    85    58   120    1
    86    59   121    1
    87    59   122    1
    88    59   123    1
    89    60    61    2
    90     1    47    1
    91     1    62    1
    92     2    63    1
    93     3    64    1
    94     4    65    1
    95     5     6    1
    96     7     8    2
    97     9    78    1
    98    15    79    1
    99    18    80    1
   100    18    81    1
   101    19    82    1
   102    19    83    1
   103    20    23    1
   104    21    84    1
   105    21    85    1
   106    22    86    1
   107    22    87    1
   108    27    45    1
   109    28    34    1
   110    32    58    1
   111    33    46    2
   112    36    51    1
   113    36    66    1
   114    37    52    1
   115    37    67    1
   116    38    53    1
   117    38    68    1
   118    42    48    1
   119    42    72    1
   120    43    44    2
   121    60    73    1
   122    61    74    1
   123    39    69    1
   124    39    57    1
   125    40    70    1
   126    40    50    1
   127    41    71    1
   128    41    49    1
