@<TRIPOS>MOLECULE
*****
 123 128 0 0 0
SMALL
GASTEIGER

@<TRIPOS>ATOM
     1 C         3.317661   0.469979   -2.525458 C.3        1 UNL1     0.0009
     2 C         3.306265   0.760332   -4.356469 C.2        1 UNL1     -0.0787
     3 C         3.477518   0.268451   -5.70731 C.2        1 UNL1     -0.0649
     4 C         3.180695   1.088118   -7.158654 C.2        1 UNL1     -0.0542
     5 C         2.932501   0.94053   -8.545627 C.2        1 UNL1     0.0115
     6 C         2.921795   -0.077606   -9.718917 C.3        1 UNL1     -0.0348
     7 C         2.295195   2.171005   -9.356036 C.2        1 UNL1     0.2441
     8 O         2.955721   2.906903   -10.076234 O.2        1 UNL1     -0.2702
     9 N         0.889976   2.188794   -9.390633 N.am        1 UNL1     -0.2772
     10 C         0.391229   2.861597   -8.298887 C.2        1 UNL1     0.1049
     11 C         0.289632   2.164202   -7.181953 C.2        1 UNL1     0.0801
     12 C         0.631501   4.984126   -6.997168 C.ar        1 UNL1     0.0753
     13 C         0.726007   4.164238   -5.827784 C.ar        1 UNL1     0.0305
     14 C         0.426003   2.734787   -5.869241 C.2        1 UNL1     0.0924
     15 N         0.396505   0.840062   -6.977606 N.pl3        1 UNL1     -0.3170
     16 C         0.031544   0.575455   -5.611209 C.3        1 UNL1     0.1275
     17 N         0.365529   1.851093   -4.877094 N.2        1 UNL1     -0.2557
     18 C         -1.487981   0.446234   -5.56596 C.3        1 UNL1     0.0016
     19 C         -1.913876   -0.632033   -6.549597 C.3        1 UNL1     0.0026
     20 N         -1.270221   -1.884571   -6.178269 N.3        1 UNL1     -0.3018
     21 C         0.19285   -1.842337   -6.13344 C.3        1 UNL1     0.0026
     22 C         0.598478   -0.75583   -5.136012 C.3        1 UNL1     0.0016
     23 C         -1.834419   -3.032353   -6.860119 C.3        1 UNL1     0.0012
     24 C         -3.249298   -3.327316   -6.33775 C.3        1 UNL1     -0.0339
     25 C         -3.956562   -2.043296   -5.873933 C.3        1 UNL1     -0.0615
     26 C         -4.054588   -4.056972   -7.39883 C.3        1 UNL1     -0.0615
     27 C         0.800804   6.364856   -6.92618 C.ar        1 UNL1     0.1347
     28 C         1.028219   7.040846   -5.740697 C.ar        1 UNL1     0.0342
     29 C         1.165956   6.208176   -4.609834 C.ar        1 UNL1     0.1435
     30 C         1.034809   4.820298   -4.671609 C.ar        1 UNL1     0.0774
     31 O         1.28038   6.722319   -3.36582 O.3        1 UNL1     -0.4436
     32 C         0.923033   5.640738   -2.492116 C.3        1 UNL1     0.3143
     33 C         1.170866   4.381822   -3.298294 C.2        1 UNL1     0.2504
     34 C         0.969748   8.530945   -5.550204 C.3        1 UNL1     -0.0327
     35 O         1.864726   5.636664   -1.412093 O.2        1 UNL1     -0.4528
     36 C         -0.003964   4.262969   1.592744 C.3        1 UNL1     0.0854
     37 C         -0.750363   2.883246   1.756384 C.3        1 UNL1     0.0236
     38 C         -0.270765   1.999373   3.005583 C.3        1 UNL1     0.1131
     39 C         1.270209   1.713009   3.219272 C.3        1 UNL1     0.0200
     40 C         2.239364   1.296836   1.926996 C.3        1 UNL1     0.0661
     41 C         1.904023   0.091986   0.780919 C.3        1 UNL1     0.0091
     42 C         2.334933   -0.00999   -0.99934 C.3        1 UNL1     0.0661
     43 C         0.258536   4.325878   -8.27383 C.2        1 UNL1     0.2131
     44 O         -0.22807   4.91863   -9.219661 O.2        1 UNL1     -0.2851
     45 O         0.73847   7.084529   -8.11766 O.3        1 UNL1     -0.5056
     46 O         1.441715   3.271769   -2.897949 O.2        1 UNL1     -0.2836
     47 C         4.776622   0.373286   -2.003862 C.3        1 UNL1     -0.0566
     48 O         2.830688   -1.405146   -0.91639 O.3        1 UNL1     -0.3909
     49 C         0.451708   -0.310933   0.907138 C.3        1 UNL1     -0.0577
     50 O         2.738145   2.451527   1.282303 O.3        1 UNL1     -0.3910
     51 O         1.09855   4.471962   2.446099 O.3        1 UNL1     -0.3753
     52 C         -1.103307   2.245042   0.373244 C.3        1 UNL1     -0.0564
     53 O         -1.211644   0.880941   3.346436 O.3        1 UNL1     -0.4608
     54 C         -0.841328   -0.366933   3.774931 C.2        1 UNL1     0.3042
     55 O         -1.350063   -1.027361   4.679841 O.2        1 UNL1     -0.2512
     56 C         0.280686   -0.968281   2.977324 C.3        1 UNL1     0.0332
     57 C         1.826027   2.806096   4.246113 C.3        1 UNL1     -0.0567
     58 C         -0.595084   5.774053   -2.22929 C.3        1 UNL1     0.0210
     59 C         0.878695   5.422044   3.487672 C.3        1 UNL1     0.0372
     60 C         0.458632   4.567715   0.211333 C.2        1 UNL1     -0.0208
     61 C         1.62304   5.05135   -0.223404 C.2        1 UNL1     0.0882
     62 H         3.000845   1.509493   -2.377983 H        1 UNL1     0.0365
     63 H         3.111076   1.83419   -4.391103 H        1 UNL1     0.0576
     64 H         3.671788   -0.786772   -5.911936 H        1 UNL1     0.0615
     65 H         3.080431   2.132852   -6.852123 H        1 UNL1     0.0622
     66 H         -0.766165   5.018832   1.828894 H        1 UNL1     0.0645
     67 H         -1.771349   3.165916   2.066616 H        1 UNL1     0.0362
     68 H         -0.55944   2.67145   3.82808 H        1 UNL1     0.0741
     69 H         1.377917   0.863038   3.879845 H        1 UNL1     0.0359
     70 H         3.111878   0.88359   2.468297 H        1 UNL1     0.0600
     71 H         2.410799   -0.771656   1.254477 H        1 UNL1     0.0348
     72 H         3.021288   0.730241   -0.563118 H        1 UNL1     0.0602
     73 H         -0.355826   4.460668   -0.461308 H        1 UNL1     0.0628
     74 H         2.522015   5.137002   0.387943 H        1 UNL1     0.1022
     75 H         3.859066   -0.684695   -9.719707 H        1 UNL1     0.0279
     76 H         2.147949   -0.841458   -9.691352 H        1 UNL1     0.0279
     77 H         2.977355   0.408239   -10.704091 H        1 UNL1     0.0279
     78 H         0.534778   1.235699   -9.351627 H        1 UNL1     0.1553
     79 H         0.309632   0.155295   -7.705947 H        1 UNL1     0.1484
     80 H         -1.795454   0.198961   -4.542689 H        1 UNL1     0.0317
     81 H         -1.969232   1.397672   -5.816588 H        1 UNL1     0.0317
     82 H         -1.67285   -0.355354   -7.586548 H        1 UNL1     0.0428
     83 H         -3.000753   -0.706406   -6.50251 H        1 UNL1     0.0428
     84 H         0.647704   -2.771089   -5.775197 H        1 UNL1     0.0428
     85 H         0.628472   -1.699785   -7.132054 H        1 UNL1     0.0428
     86 H         1.663857   -0.843432   -5.029796 H        1 UNL1     0.0317
     87 H         0.22238   -1.005558   -4.13637 H        1 UNL1     0.0317
     88 H         -1.899179   -2.796047   -7.930287 H        1 UNL1     0.0429
     89 H         -1.18531   -3.912208   -6.763749 H        1 UNL1     0.0429
     90 H         -3.181821   -4.015614   -5.486923 H        1 UNL1     0.0308
     91 H         -3.843737   -1.894303   -4.795891 H        1 UNL1     0.0233
     92 H         -3.559393   -1.171967   -6.399909 H        1 UNL1     0.0233
     93 H         -5.033306   -2.061281   -6.081624 H        1 UNL1     0.0233
     94 H         -4.505584   -3.338166   -8.091475 H        1 UNL1     0.0233
     95 H         -3.400829   -4.716763   -7.976097 H        1 UNL1     0.0233
     96 H         -4.854029   -4.654789   -6.952202 H        1 UNL1     0.0233
     97 H         1.802032   9.036165   -6.031126 H        1 UNL1     0.0280
     98 H         0.061227   8.968321   -5.984425 H        1 UNL1     0.0280
     99 H         0.99773   8.766762   -4.473773 H        1 UNL1     0.0280
     100 H         1.268026   6.736525   -8.813423 H        1 UNL1     0.2922
     101 H         4.776761   0.349906   -0.914316 H        1 UNL1     0.0236
     102 H         5.424881   1.156098   -2.396226 H        1 UNL1     0.0236
     103 H         5.26208   -0.570316   -2.304094 H        1 UNL1     0.0236
     104 H         3.338907   -1.586509   -1.731124 H        1 UNL1     0.2098
     105 H         0.289799   -1.381011   1.00976 H        1 UNL1     0.0234
     106 H         -0.106358   0.230533   1.670881 H        1 UNL1     0.0234
     107 H         -0.0   0.0   0.0 H        1 UNL1     0.0234
     108 H         2.657298   3.193323   1.91236 H        1 UNL1     0.2098
     109 H         -1.769526   2.884807   -0.222209 H        1 UNL1     0.0234
     110 H         -0.219295   1.985043   -0.218927 H        1 UNL1     0.0234
     111 H         -1.63454   1.291217   0.491375 H        1 UNL1     0.0234
     112 H         0.518701   -1.964513   3.362314 H        1 UNL1     0.0342
     113 H         0.052877   -1.004839   1.913082 H        1 UNL1     0.0342
     114 H         1.17015   -0.336214   3.105815 H        1 UNL1     0.0342
     115 H         2.833028   2.553682   4.605868 H        1 UNL1     0.0234
     116 H         1.867141   3.817995   3.83817 H        1 UNL1     0.0234
     117 H         1.264003   2.844067   5.195128 H        1 UNL1     0.0234
     118 H         -0.910405   6.828887   -2.146206 H        1 UNL1     0.0309
     119 H         -1.207722   5.275751   -2.987295 H        1 UNL1     0.0309
     120 H         -0.89442   5.344428   -1.267039 H        1 UNL1     0.0309
     121 H         1.584623   5.202832   4.288276 H        1 UNL1     0.0524
     122 H         1.064156   6.45716   3.155743 H        1 UNL1     0.0524
     123 H         -0.140614   5.34709   3.855755 H        1 UNL1     0.0524
@<TRIPOS>BOND
     1     1     2    1
     2     1    42    1
     3     2     3    2
     4     3     4    1
     5     4     5    2
     6     5     7    1
     7     6    75    1
     8     6    76    1
     9     6    77    1
    10     7     9   am
    11     9    10    1
    12    10    11    2
    13    10    43    1
    14    11    14    1
    15    11    15    1
    16    12    13   ar
    17    12    27   ar
    18    12    43    1
    19    13    14    1
    20    13    30   ar
    21    14    17    2
    22    15    16    1
    23    16    17    1
    24    16    18    1
    25    16    22    1
    26    18    19    1
    27    19    20    1
    28    20    21    1
    29    21    22    1
    30    23    24    1
    31    23    88    1
    32    23    89    1
    33    24    25    1
    34    24    26    1
    35    24    90    1
    36    25    91    1
    37    25    92    1
    38    25    93    1
    39    26    94    1
    40    26    95    1
    41    26    96    1
    42    27    28   ar
    43    28    29   ar
    44    29    30   ar
    45    29    31    1
    46    30    33    1
    47    31    32    1
    48    32    33    1
    49    32    35    1
    50    34    97    1
    51    34    98    1
    52    34    99    1
    53    35    61    1
    54    36    37    1
    55    36    60    1
    56    37    38    1
    57    38    39    1
    58    39    40    1
    59    40    41    1
    60    41    42    1
    61    45   100    1
    62    47   101    1
    63    47   102    1
    64    47   103    1
    65    48   104    1
    66    49   105    1
    67    49   106    1
    68    49   107    1
    69    50   108    1
    70    51    59    1
    71    52   109    1
    72    52   110    1
    73    52   111    1
    74    53    54    1
    75    54    55    2
    76    54    56    1
    77    56   112    1
    78    56   113    1
    79    56   114    1
    80    57   115    1
    81    57   116    1
    82    57   117    1
    83    58   118    1
    84    58   119    1
    85    58   120    1
    86    59   121    1
    87    59   122    1
    88    59   123    1
    89    60    61    2
    90     1    47    1
    91     1    62    1
    92     2    63    1
    93     3    64    1
    94     4    65    1
    95     5     6    1
    96     7     8    2
    97     9    78    1
    98    15    79    1
    99    18    80    1
   100    18    81    1
   101    19    82    1
   102    19    83    1
   103    20    23    1
   104    21    84    1
   105    21    85    1
   106    22    86    1
   107    22    87    1
   108    27    45    1
   109    28    34    1
   110    32    58    1
   111    33    46    2
   112    36    51    1
   113    36    66    1
   114    37    52    1
   115    37    67    1
   116    38    53    1
   117    38    68    1
   118    42    48    1
   119    42    72    1
   120    43    44    2
   121    60    73    1
   122    61    74    1
   123    39    69    1
   124    39    57    1
   125    40    70    1
   126    40    50    1
   127    41    71    1
   128    41    49    1
