@<TRIPOS>MOLECULE
*****
 123 128 0 0 0
SMALL
GASTEIGER

@<TRIPOS>ATOM
     1 C         4.356483   2.767627   1.833186 C.3        1 UNL1     0.0009
     2 C         5.686763   3.990004   1.417031 C.2        1 UNL1     -0.0787
     3 C         7.059465   4.279315   1.059211 C.2        1 UNL1     -0.0649
     4 C         7.73371   5.776283   0.645884 C.2        1 UNL1     -0.0542
     5 C         8.815688   6.423702   -6.5e-05 C.2        1 UNL1     0.0115
     6 C         10.215092   6.199879   -0.636378 C.3        1 UNL1     -0.0348
     7 C         8.657161   7.963208   -0.426421 C.2        1 UNL1     0.2441
     8 O         9.155609   8.883712   0.206625 O.2        1 UNL1     -0.2702
     9 N         8.131018   8.166577   -1.714041 N.am        1 UNL1     -0.2772
     10 C         6.756319   8.206659   -1.670245 C.2        1 UNL1     0.1049
     11 C         6.139573   7.038827   -1.673912 C.2        1 UNL1     0.0801
     12 C         4.840324   9.258127   -0.4534 C.ar        1 UNL1     0.0753
     13 C         4.313495   7.936065   -0.301053 C.ar        1 UNL1     0.0305
     14 C         4.881058   6.798516   -1.021403 C.2        1 UNL1     0.0924
     15 N         6.620283   5.808863   -1.924182 N.pl3        1 UNL1     -0.3170
     16 C         5.504334   4.901742   -1.969383 C.3        1 UNL1     0.1275
     17 N         4.465082   5.536493   -1.077885 N.2        1 UNL1     -0.2557
     18 C         4.936765   4.953288   -3.384625 C.3        1 UNL1     0.0016
     19 C         6.050358   4.628079   -4.367346 C.3        1 UNL1     0.0026
     20 N         6.573165   3.303887   -4.060397 N.3        1 UNL1     -0.3018
     21 C         7.08625   3.138274   -2.698896 C.3        1 UNL1     0.0026
     22 C         5.949986   3.465462   -1.72846 C.3        1 UNL1     0.0016
     23 C         7.422919   2.776043   -5.109179 C.3        1 UNL1     0.0012
     24 C         6.589215   2.421396   -6.350517 C.3        1 UNL1     -0.0339
     25 C         6.695748   3.511392   -7.429691 C.3        1 UNL1     -0.0615
     26 C         7.004656   1.062163   -6.885939 C.3        1 UNL1     -0.0615
     27 C         4.220525   10.354951   0.140693 C.ar        1 UNL1     0.1347
     28 C         3.051305   10.259777   0.874121 C.ar        1 UNL1     0.0342
     29 C         2.577947   8.942366   1.051675 C.ar        1 UNL1     0.1435
     30 C         3.208439   7.830025   0.49275 C.ar        1 UNL1     0.0774
     31 O         1.391645   8.694184   1.648416 O.3        1 UNL1     -0.4436
     32 C         1.045363   7.365777   1.228536 C.3        1 UNL1     0.3143
     33 C         2.360702   6.713122   0.854184 C.2        1 UNL1     0.2504
     34 C         2.197503   11.411827   1.325677 C.3        1 UNL1     -0.0327
     35 O         0.547696   6.671529   2.379013 O.2        1 UNL1     -0.4528
     36 C         -1.95991   4.143179   1.064688 C.3        1 UNL1     0.0854
     37 C         -1.752674   2.991686   0.007031 C.3        1 UNL1     0.0236
     38 C         -2.164751   1.526866   0.513231 C.3        1 UNL1     0.1131
     39 C         -1.607073   0.986697   1.891448 C.3        1 UNL1     0.0200
     40 C         -0.005873   1.211537   2.301377 C.3        1 UNL1     0.0661
     41 C         1.330664   0.856233   1.319013 C.3        1 UNL1     0.0091
     42 C         2.970705   1.669737   1.201192 C.3        1 UNL1     0.0661
     43 C         6.017985   9.434458   -1.338997 C.2        1 UNL1     0.2131
     44 O         6.316852   10.494503   -1.858344 O.2        1 UNL1     -0.2851
     45 O         4.823182   11.601075   -0.018731 O.3        1 UNL1     -0.5056
     46 O         2.650594   5.537747   0.871766 O.2        1 UNL1     -0.2836
     47 C         4.549267   2.2316   3.277309 C.3        1 UNL1     -0.0566
     48 O         3.732042   0.398155   1.251797 O.3        1 UNL1     -0.3909
     49 C         0.848951   0.6274   -0.096289 C.3        1 UNL1     -0.0577
     50 O         0.178578   2.461671   2.934516 O.3        1 UNL1     -0.3910
     51 O         -2.310538   3.728821   2.365764 O.3        1 UNL1     -0.3753
     52 C         -0.49106   3.239242   -0.882911 C.3        1 UNL1     -0.0564
     53 O         -2.293994   0.522854   -0.594733 O.3        1 UNL1     -0.4608
     54 C         -2.223615   -0.83772   -0.447036 C.2        1 UNL1     0.3042
     55 O         -1.333638   -1.587334   -0.846859 O.2        1 UNL1     -0.2512
     56 C         -3.359639   -1.415921   0.347853 C.3        1 UNL1     0.0332
     57 C         -2.711567   1.285509   3.009026 C.3        1 UNL1     -0.0567
     58 C         0.18449   7.520589   -0.046792 C.3        1 UNL1     0.0210
     59 C         -3.051342   4.686575   3.120604 C.3        1 UNL1     0.0372
     60 C         -0.81229   5.080092   1.207248 C.2        1 UNL1     -0.0208
     61 C         -0.231979   5.57609   2.300851 C.2        1 UNL1     0.0882
     62 H         3.641971   3.596917   1.899978 H        1 UNL1     0.0365
     63 H         5.149747   4.930591   1.556241 H        1 UNL1     0.0576
     64 H         7.779321   3.482236   0.860265 H        1 UNL1     0.0615
     65 H         6.973498   6.498779   0.955013 H        1 UNL1     0.0622
     66 H         -2.78929   4.741661   0.662202 H        1 UNL1     0.0645
     67 H         -2.526455   3.185992   -0.755902 H        1 UNL1     0.0362
     68 H         -3.241823   1.68475   0.676052 H        1 UNL1     0.0741
     69 H         -1.707445   -0.090342   1.909389 H        1 UNL1     0.0359
     70 H         0.087495   0.471081   3.118731 H        1 UNL1     0.0600
     71 H         1.541335   -0.180626   1.646882 H        1 UNL1     0.0348
     72 H         2.550748   1.97302   2.171228 H        1 UNL1     0.0602
     73 H         -0.540984   5.448366   0.249116 H        1 UNL1     0.0628
     74 H         -0.411612   5.212433   3.313137 H        1 UNL1     0.1022
     75 H         10.468659   5.112473   -0.653292 H        1 UNL1     0.0279
     76 H         10.323681   6.482023   -1.681209 H        1 UNL1     0.0279
     77 H         11.031904   6.603401   -0.020189 H        1 UNL1     0.0279
     78 H         8.395784   7.39128   -2.318104 H        1 UNL1     0.1553
     79 H         7.481844   5.635501   -2.408529 H        1 UNL1     0.1484
     80 H         4.110147   4.237001   -3.464631 H        1 UNL1     0.0317
     81 H         4.517433   5.941435   -3.602292 H        1 UNL1     0.0317
     82 H         6.848741   5.384316   -4.342783 H        1 UNL1     0.0428
     83 H         5.624375   4.672191   -5.370164 H        1 UNL1     0.0428
     84 H         7.398786   2.114818   -2.469397 H        1 UNL1     0.0428
     85 H         7.990568   3.738269   -2.527045 H        1 UNL1     0.0428
     86 H         6.318552   3.206541   -0.753213 H        1 UNL1     0.0317
     87 H         5.116763   2.768046   -1.87828 H        1 UNL1     0.0317
     88 H         8.147534   3.553239   -5.38521 H        1 UNL1     0.0429
     89 H         7.998435   1.909882   -4.758011 H        1 UNL1     0.0429
     90 H         5.536982   2.319829   -6.05948 H        1 UNL1     0.0308
     91 H         7.736208   3.680454   -7.722884 H        1 UNL1     0.0233
     92 H         6.114   3.238386   -8.313232 H        1 UNL1     0.0233
     93 H         6.300373   4.476107   -7.08934 H        1 UNL1     0.0233
     94 H         6.593822   0.910021   -7.889883 H        1 UNL1     0.0233
     95 H         8.094553   1.005182   -6.955497 H        1 UNL1     0.0233
     96 H         6.649357   0.253614   -6.240974 H        1 UNL1     0.0233
     97 H         1.281189   11.077383   1.802905 H        1 UNL1     0.0280
     98 H         2.70926   12.041154   2.065479 H        1 UNL1     0.0280
     99 H         1.92739   12.03385   0.456642 H        1 UNL1     0.0280
     100 H         4.249641   12.275378   -0.338087 H        1 UNL1     0.2922
     101 H         3.732154   1.556635   3.531092 H        1 UNL1     0.0236
     102 H         4.670078   3.023386   4.015864 H        1 UNL1     0.0236
     103 H         5.459906   1.616933   3.372778 H        1 UNL1     0.0236
     104 H         3.901122   0.192831   2.192129 H        1 UNL1     0.2098
     105 H         0.538305   1.530041   -0.616434 H        1 UNL1     0.0234
     106 H         1.528209   0.046661   -0.72021 H        1 UNL1     0.0234
     107 H         0.0   0.0   0.0 H        1 UNL1     0.0234
     108 H         0.027005   3.152895   2.26146 H        1 UNL1     0.2098
     109 H         0.429505   3.31548   -0.287547 H        1 UNL1     0.0234
     110 H         -0.360455   2.482916   -1.664356 H        1 UNL1     0.0234
     111 H         -0.565791   4.184389   -1.43704 H        1 UNL1     0.0234
     112 H         -3.232311   -2.498295   0.445836 H        1 UNL1     0.0342
     113 H         -3.458067   -0.944113   1.324353 H        1 UNL1     0.0342
     114 H         -4.291951   -1.235148   -0.204669 H        1 UNL1     0.0342
     115 H         -3.698361   0.8967   2.72223 H        1 UNL1     0.0234
     116 H         -2.470437   0.876277   3.9921 H        1 UNL1     0.0234
     117 H         -2.933314   2.359556   3.132288 H        1 UNL1     0.0234
     118 H         -0.874642   7.723466   0.190033 H        1 UNL1     0.0309
     119 H         0.555161   8.296828   -0.723739 H        1 UNL1     0.0309
     120 H         0.139153   6.599271   -0.637744 H        1 UNL1     0.0309
     121 H         -2.40854   5.552652   3.275759 H        1 UNL1     0.0524
     122 H         -3.952317   5.033114   2.587508 H        1 UNL1     0.0524
     123 H         -3.347897   4.263862   4.076357 H        1 UNL1     0.0524
@<TRIPOS>BOND
     1     1     2    1
     2     1    42    1
     3     2     3    2
     4     3     4    1
     5     4     5    2
     6     5     7    1
     7     6    75    1
     8     6    76    1
     9     6    77    1
    10     7     9   am
    11     9    10    1
    12    10    11    2
    13    10    43    1
    14    11    14    1
    15    11    15    1
    16    12    13   ar
    17    12    27   ar
    18    12    43    1
    19    13    14    1
    20    13    30   ar
    21    14    17    2
    22    15    16    1
    23    16    17    1
    24    16    18    1
    25    16    22    1
    26    18    19    1
    27    19    20    1
    28    20    21    1
    29    21    22    1
    30    23    24    1
    31    23    88    1
    32    23    89    1
    33    24    25    1
    34    24    26    1
    35    24    90    1
    36    25    91    1
    37    25    92    1
    38    25    93    1
    39    26    94    1
    40    26    95    1
    41    26    96    1
    42    27    28   ar
    43    28    29   ar
    44    29    30   ar
    45    29    31    1
    46    30    33    1
    47    31    32    1
    48    32    33    1
    49    32    35    1
    50    34    97    1
    51    34    98    1
    52    34    99    1
    53    35    61    1
    54    36    37    1
    55    36    60    1
    56    37    38    1
    57    38    39    1
    58    39    40    1
    59    40    41    1
    60    41    42    1
    61    45   100    1
    62    47   101    1
    63    47   102    1
    64    47   103    1
    65    48   104    1
    66    49   105    1
    67    49   106    1
    68    49   107    1
    69    50   108    1
    70    51    59    1
    71    52   109    1
    72    52   110    1
    73    52   111    1
    74    53    54    1
    75    54    55    2
    76    54    56    1
    77    56   112    1
    78    56   113    1
    79    56   114    1
    80    57   115    1
    81    57   116    1
    82    57   117    1
    83    58   118    1
    84    58   119    1
    85    58   120    1
    86    59   121    1
    87    59   122    1
    88    59   123    1
    89    60    61    2
    90     1    47    1
    91     1    62    1
    92     2    63    1
    93     3    64    1
    94     4    65    1
    95     5     6    1
    96     7     8    2
    97     9    78    1
    98    15    79    1
    99    18    80    1
   100    18    81    1
   101    19    82    1
   102    19    83    1
   103    20    23    1
   104    21    84    1
   105    21    85    1
   106    22    86    1
   107    22    87    1
   108    27    45    1
   109    28    34    1
   110    32    58    1
   111    33    46    2
   112    36    51    1
   113    36    66    1
   114    37    52    1
   115    37    67    1
   116    38    53    1
   117    38    68    1
   118    42    48    1
   119    42    72    1
   120    43    44    2
   121    60    73    1
   122    61    74    1
   123    39    69    1
   124    39    57    1
   125    40    70    1
   126    40    50    1
   127    41    71    1
   128    41    49    1
