@<TRIPOS>MOLECULE
*****
 123 128 0 0 0
SMALL
GASTEIGER

@<TRIPOS>ATOM
     1 C         5.166   1.752539   0.490226 C.3        1 UNL1     0.0009
     2 C         6.603179   2.556304   -0.361546 C.2        1 UNL1     -0.0787
     3 C         7.885732   2.45635   -1.025709 C.2        1 UNL1     -0.0649
     4 C         8.76341   3.689227   -1.784689 C.2        1 UNL1     -0.0542
     5 C         9.784217   3.979062   -2.72332 C.2        1 UNL1     0.0115
     6 C         10.913491   3.351105   -3.58572 C.3        1 UNL1     -0.0348
     7 C         9.879545   5.460268   -3.334818 C.2        1 UNL1     0.2441
     8 O         10.70274   6.283536   -2.959179 O.2        1 UNL1     -0.2702
     9 N         9.13036   5.662918   -4.506913 N.am        1 UNL1     -0.2772
     10 C         7.847192   6.050158   -4.195711 C.2        1 UNL1     0.1049
     11 C         7.001514   5.079412   -3.901254 C.2        1 UNL1     0.0801
     12 C         6.546813   7.661117   -2.791732 C.ar        1 UNL1     0.0753
     13 C         5.787777   6.534438   -2.341101 C.ar        1 UNL1     0.0305
     14 C         5.905844   5.226579   -2.981893 C.2        1 UNL1     0.0924
     15 N         7.124815   3.749946   -4.055667 N.pl3        1 UNL1     -0.3170
     16 C         5.854895   3.151348   -3.740649 C.3        1 UNL1     0.1275
     17 N         5.217178   4.109682   -2.764618 N.2        1 UNL1     -0.2557
     18 C         5.003231   3.205741   -5.005328 C.3        1 UNL1     0.0016
     19 C         5.759462   2.518085   -6.130865 C.3        1 UNL1     0.0026
     20 N         6.029784   1.141423   -5.740023 N.3        1 UNL1     -0.3018
     21 C         6.79202   0.985587   -4.499426 C.3        1 UNL1     0.0026
     22 C         6.011929   1.679636   -3.381549 C.3        1 UNL1     0.0016
     23 C         6.475677   0.318262   -6.846471 C.3        1 UNL1     0.0012
     24 C         5.32127   0.064956   -7.828784 C.3        1 UNL1     -0.0339
     25 C         5.347539   1.064142   -8.997113 C.3        1 UNL1     -0.0615
     26 C         5.361709   -1.371431   -8.320655 C.3        1 UNL1     -0.0615
     27 C         6.341133   8.930572   -2.256665 C.ar        1 UNL1     0.1347
     28 C         5.381051   9.203028   -1.29851 C.ar        1 UNL1     0.0342
     29 C         4.679501   8.069884   -0.834856 C.ar        1 UNL1     0.1435
     30 C         4.899937   6.786218   -1.335685 C.ar        1 UNL1     0.0774
     31 O         3.637651   8.185962   0.017248 O.3        1 UNL1     -0.4436
     32 C         2.9166   6.952372   -0.121365 C.3        1 UNL1     0.3143
     33 C         3.930798   5.957852   -0.649138 C.2        1 UNL1     0.2504
     34 C         4.93325   10.570458   -0.862953 C.3        1 UNL1     -0.0327
     35 O         2.554885   6.520051   1.196023 O.2        1 UNL1     -0.4528
     36 C         -0.687014   4.585213   0.802853 C.3        1 UNL1     0.0854
     37 C         -0.990967   3.321431   -0.09045 C.3        1 UNL1     0.0236
     38 C         -1.591768   2.062862   0.701247 C.3        1 UNL1     0.1131
     39 C         -0.867034   1.536695   2.005156 C.3        1 UNL1     0.0200
     40 C         0.794176   1.391957   2.048397 C.3        1 UNL1     0.0661
     41 C         1.754958   0.619498   0.883145 C.3        1 UNL1     0.0091
     42 C         3.462935   0.980797   0.319513 C.3        1 UNL1     0.0661
     43 C         7.497999   7.449942   -3.911066 C.2        1 UNL1     0.2131
     44 O         7.898206   8.345703   -4.632304 O.2        1 UNL1     -0.2851
     45 O         7.153423   9.964422   -2.717945 O.3        1 UNL1     -0.5056
     46 O         3.947141   4.754781   -0.514205 O.2        1 UNL1     -0.2836
     47 C         5.561171   1.328173   1.930273 C.3        1 UNL1     -0.0566
     48 O         3.91198   -0.429839   0.406579 O.3        1 UNL1     -0.3909
     49 C         0.922036   0.382307   -0.356806 C.3        1 UNL1     -0.0577
     50 O         1.39352   2.611405   2.437574 O.3        1 UNL1     -0.3910
     51 O         -0.812343   4.400281   2.194803 O.3        1 UNL1     -0.3753
     52 C         0.054641   3.157409   -1.241428 C.3        1 UNL1     -0.0564
     53 O         -2.193109   1.020545   -0.195575 O.3        1 UNL1     -0.4608
     54 C         -2.427323   -0.285123   0.148381 C.2        1 UNL1     0.3042
     55 O         -1.857416   -1.285528   -0.285478 O.2        1 UNL1     -0.2512
     56 C         -3.468287   -0.44749   1.219243 C.3        1 UNL1     0.0332
     57 C         -1.589517   2.209742   3.263409 C.3        1 UNL1     -0.0567
     58 C         1.842332   7.193297   -1.207382 C.3        1 UNL1     0.0210
     59 C         -1.126704   5.581705   2.930521 C.3        1 UNL1     0.0372
     60 C         0.64195   5.214028   0.571322 C.2        1 UNL1     -0.0208
     61 C         1.553893   5.652618   1.440081 C.2        1 UNL1     0.0882
     62 H         4.689609   2.736818   0.573652 H        1 UNL1     0.0365
     63 H         6.336417   3.610354   -0.260126 H        1 UNL1     0.0576
     64 H         8.343976   1.488926   -1.242991 H        1 UNL1     0.0615
     65 H         8.275641   4.605621   -1.441488 H        1 UNL1     0.0622
     66 H         -1.431666   5.330371   0.489357 H        1 UNL1     0.0645
     67 H         -1.856061   3.628342   -0.703619 H        1 UNL1     0.0362
     68 H         -2.539341   2.500572   1.050586 H        1 UNL1     0.0741
     69 H         -1.198342   0.526145   2.203734 H        1 UNL1     0.0359
     70 H         0.905383   0.734715   2.931984 H        1 UNL1     0.0600
     71 H         1.798541   -0.400171   1.313648 H        1 UNL1     0.0348
     72 H         3.355941   1.472338   1.297396 H        1 UNL1     0.0602
     73 H         0.760741   5.407746   -0.465795 H        1 UNL1     0.0628
     74 H         1.535426   5.445641   2.510622 H        1 UNL1     0.1022
     75 H         10.958263   2.246379   -3.428847 H        1 UNL1     0.0279
     76 H         10.800838   3.430126   -4.664671 H        1 UNL1     0.0279
     77 H         11.918139   3.657334   -3.259213 H        1 UNL1     0.0279
     78 H         9.069194   4.791138   -5.028772 H        1 UNL1     0.1553
     79 H         7.790832   3.32009   -4.670953 H        1 UNL1     0.1484
     80 H         4.041961   2.7151   -4.810399 H        1 UNL1     0.0317
     81 H         4.776469   4.241463   -5.280122 H        1 UNL1     0.0317
     82 H         6.690149   3.048896   -6.379813 H        1 UNL1     0.0428
     83 H         5.135124   2.569901   -7.023371 H        1 UNL1     0.0428
     84 H         6.912459   -0.056243   -4.186544 H        1 UNL1     0.0428
     85 H         7.822064   1.353667   -4.603551 H        1 UNL1     0.0428
     86 H         6.527599   1.432615   -2.472124 H        1 UNL1     0.0317
     87 H         5.032555   1.202046   -3.255726 H        1 UNL1     0.0317
     88 H         7.272021   0.858549   -7.374885 H        1 UNL1     0.0429
     89 H         6.908314   -0.626121   -6.491875 H        1 UNL1     0.0429
     90 H         4.367869   0.173123   -7.298181 H        1 UNL1     0.0308
     91 H         6.298167   1.019922   -9.536976 H        1 UNL1     0.0233
     92 H         4.529836   0.865371   -9.693863 H        1 UNL1     0.0233
     93 H         5.219378   2.10085   -8.662978 H        1 UNL1     0.0233
     94 H         4.667411   -1.503793   -9.157475 H        1 UNL1     0.0233
     95 H         6.366904   -1.617026   -8.674534 H        1 UNL1     0.0233
     96 H         5.085377   -2.072536   -7.528153 H        1 UNL1     0.0233
     97 H         4.137136   10.522954   -0.125948 H        1 UNL1     0.0280
     98 H         5.744537   11.141291   -0.392613 H        1 UNL1     0.0280
     99 H         4.563098   11.13296   -1.735693 H        1 UNL1     0.0280
     100 H         6.686395   10.713463   -3.044203 H        1 UNL1     0.2922
     101 H         4.698057   0.89594   2.436103 H        1 UNL1     0.0236
     102 H         6.011092   2.135695   2.506869 H        1 UNL1     0.0236
     103 H         6.317738   0.525805   1.932656 H        1 UNL1     0.0236
     104 H         4.330746   -0.552638   1.280951 H        1 UNL1     0.2098
     105 H         0.709571   1.279065   -0.93343 H        1 UNL1     0.0234
     106 H         1.29235   -0.407833   -1.009855 H        1 UNL1     0.0234
     107 H         0.0   -0.0   0.0 H        1 UNL1     0.0234
     108 H         1.195958   3.266989   1.741192 H        1 UNL1     0.2098
     109 H         1.079165   3.045659   -0.859886 H        1 UNL1     0.0234
     110 H         -0.176839   2.32787   -1.918204 H        1 UNL1     0.0234
     111 H         0.076093   4.037967   -1.897252 H        1 UNL1     0.0234
     112 H         -3.600586   -1.508501   1.451837 H        1 UNL1     0.0342
     113 H         -3.226133   0.121723   2.115457 H        1 UNL1     0.0342
     114 H         -4.422676   -0.066365   0.830593 H        1 UNL1     0.0342
     115 H         -2.659078   1.961172   3.301375 H        1 UNL1     0.0234
     116 H         -1.153847   1.933484   4.225658 H        1 UNL1     0.0234
     117 H         -1.628507   3.311407   3.210931 H        1 UNL1     0.0234
     118 H         0.94068   7.681267   -0.797607 H        1 UNL1     0.0309
     119 H         2.212258   7.778495   -2.055262 H        1 UNL1     0.0309
     120 H         1.454528   6.259717   -1.629452 H        1 UNL1     0.0309
     121 H         -0.305807   6.28472   2.791766 H        1 UNL1     0.0524
     122 H         -2.046356   6.069124   2.566239 H        1 UNL1     0.0524
     123 H         -1.245566   5.347565   3.984629 H        1 UNL1     0.0524
@<TRIPOS>BOND
     1     1     2    1
     2     1    42    1
     3     2     3    2
     4     3     4    1
     5     4     5    2
     6     5     7    1
     7     6    75    1
     8     6    76    1
     9     6    77    1
    10     7     9   am
    11     9    10    1
    12    10    11    2
    13    10    43    1
    14    11    14    1
    15    11    15    1
    16    12    13   ar
    17    12    27   ar
    18    12    43    1
    19    13    14    1
    20    13    30   ar
    21    14    17    2
    22    15    16    1
    23    16    17    1
    24    16    18    1
    25    16    22    1
    26    18    19    1
    27    19    20    1
    28    20    21    1
    29    21    22    1
    30    23    24    1
    31    23    88    1
    32    23    89    1
    33    24    25    1
    34    24    26    1
    35    24    90    1
    36    25    91    1
    37    25    92    1
    38    25    93    1
    39    26    94    1
    40    26    95    1
    41    26    96    1
    42    27    28   ar
    43    28    29   ar
    44    29    30   ar
    45    29    31    1
    46    30    33    1
    47    31    32    1
    48    32    33    1
    49    32    35    1
    50    34    97    1
    51    34    98    1
    52    34    99    1
    53    35    61    1
    54    36    37    1
    55    36    60    1
    56    37    38    1
    57    38    39    1
    58    39    40    1
    59    40    41    1
    60    41    42    1
    61    45   100    1
    62    47   101    1
    63    47   102    1
    64    47   103    1
    65    48   104    1
    66    49   105    1
    67    49   106    1
    68    49   107    1
    69    50   108    1
    70    51    59    1
    71    52   109    1
    72    52   110    1
    73    52   111    1
    74    53    54    1
    75    54    55    2
    76    54    56    1
    77    56   112    1
    78    56   113    1
    79    56   114    1
    80    57   115    1
    81    57   116    1
    82    57   117    1
    83    58   118    1
    84    58   119    1
    85    58   120    1
    86    59   121    1
    87    59   122    1
    88    59   123    1
    89    60    61    2
    90     1    47    1
    91     1    62    1
    92     2    63    1
    93     3    64    1
    94     4    65    1
    95     5     6    1
    96     7     8    2
    97     9    78    1
    98    15    79    1
    99    18    80    1
   100    18    81    1
   101    19    82    1
   102    19    83    1
   103    20    23    1
   104    21    84    1
   105    21    85    1
   106    22    86    1
   107    22    87    1
   108    27    45    1
   109    28    34    1
   110    32    58    1
   111    33    46    2
   112    36    51    1
   113    36    66    1
   114    37    52    1
   115    37    67    1
   116    38    53    1
   117    38    68    1
   118    42    48    1
   119    42    72    1
   120    43    44    2
   121    60    73    1
   122    61    74    1
   123    39    69    1
   124    39    57    1
   125    40    70    1
   126    40    50    1
   127    41    71    1
   128    41    49    1
