@<TRIPOS>MOLECULE
*****
 123 128 0 0 0
SMALL
GASTEIGER

@<TRIPOS>ATOM
     1 C         4.981752   2.089441   0.903134 C.3        1 UNL1     0.0009
     2 C         6.411268   3.02175   0.179033 C.2        1 UNL1     -0.0787
     3 C         7.739392   3.035559   -0.39711 C.2        1 UNL1     -0.0649
     4 C         8.57499   4.353297   -1.05415 C.2        1 UNL1     -0.0542
     5 C         9.633002   4.747389   -1.909942 C.2        1 UNL1     0.0115
     6 C         10.859931   4.231325   -2.71097 C.3        1 UNL1     -0.0348
     7 C         9.662263   6.252814   -2.466564 C.2        1 UNL1     0.2441
     8 O         10.396938   7.117308   -2.008931 O.2        1 UNL1     -0.2702
     9 N         8.980845   6.445078   -3.681001 N.am        1 UNL1     -0.2772
     10 C         7.655125   6.73041   -3.44782 C.2        1 UNL1     0.1049
     11 C         6.863692   5.693053   -3.2435 C.2        1 UNL1     0.0801
     12 C         6.150754   8.194894   -2.087861 C.ar        1 UNL1     0.0753
     13 C         5.446283   7.002468   -1.726687 C.ar        1 UNL1     0.0305
     14 C         5.701003   5.730091   -2.398422 C.2        1 UNL1     0.0924
     15 N         7.092509   4.381882   -3.430588 N.pl3        1 UNL1     -0.3170
     16 C         5.850714   3.685208   -3.223606 C.3        1 UNL1     0.1275
     17 N         5.081528   4.560775   -2.264721 N.2        1 UNL1     -0.2557
     18 C         5.084211   3.725885   -4.542135 C.3        1 UNL1     0.0016
     19 C         5.961883   3.133836   -5.633354 C.3        1 UNL1     0.0026
     20 N         6.303785   1.766112   -5.26803 N.3        1 UNL1     -0.3018
     21 C         6.990218   1.618945   -3.982916 C.3        1 UNL1     0.0026
     22 C         6.088856   2.215981   -2.900793 C.3        1 UNL1     0.0016
     23 C         6.881104   1.016655   -6.366056 C.3        1 UNL1     0.0012
     24 C         5.816525   0.719252   -7.433754 C.3        1 UNL1     -0.0339
     25 C         5.860698   1.74952   -8.574216 C.3        1 UNL1     -0.0615
     26 C         5.982441   -0.697995   -7.954006 C.3        1 UNL1     -0.0615
     27 C         5.818715   9.426708   -1.528842 C.ar        1 UNL1     0.1347
     28 C         4.779326   9.596694   -0.63172 C.ar        1 UNL1     0.0342
     29 C         4.131653   8.401357   -0.253765 C.ar        1 UNL1     0.1435
     30 C         4.4771   7.155164   -0.778065 C.ar        1 UNL1     0.0774
     31 O         3.029278   8.41359   0.527021 O.3        1 UNL1     -0.4436
     32 C         2.409881   7.138575   0.299958 C.3        1 UNL1     0.3143
     33 C         3.526219   6.236938   -0.18692 C.2        1 UNL1     0.2504
     34 C         4.20597   10.912908   -0.185691 C.3        1 UNL1     -0.0327
     35 O         1.992581   6.634655   1.574782 O.2        1 UNL1     -0.4528
     36 C         -1.067813   4.494076   0.896549 C.3        1 UNL1     0.0854
     37 C         -1.219277   3.245373   -0.054935 C.3        1 UNL1     0.0236
     38 C         -1.779692   1.920137   0.653182 C.3        1 UNL1     0.1131
     39 C         -1.10816   1.398876   1.987199 C.3        1 UNL1     0.0200
     40 C         0.552496   1.368807   2.141333 C.3        1 UNL1     0.0661
     41 C         1.642499   0.707914   1.022083 C.3        1 UNL1     0.0091
     42 C         3.354009   1.207562   0.59024 C.3        1 UNL1     0.0661
     43 C         7.187703   8.091218   -3.144388 C.2        1 UNL1     0.2131
     44 O         7.569894   9.038234   -3.807584 O.2        1 UNL1     -0.2851
     45 O         6.583582   10.53069   -1.899841 O.3        1 UNL1     -0.5056
     46 O         3.620063   5.033835   -0.088982 O.2        1 UNL1     -0.2836
     47 C         5.308849   1.641763   2.35316 C.3        1 UNL1     -0.0566
     48 O         3.896616   -0.17057   0.664041 O.3        1 UNL1     -0.3909
     49 C         0.913986   0.458318   -0.279633 C.3        1 UNL1     -0.0577
     50 O         1.034967   2.612163   2.609319 O.3        1 UNL1     -0.3910
     51 O         -1.2727   4.250556   2.269921 O.3        1 UNL1     -0.3753
     52 C         -0.089637   3.196432   -1.134966 C.3        1 UNL1     -0.0564
     53 O         -2.242812   0.871614   -0.315552 O.3        1 UNL1     -0.4608
     54 C         -2.404957   -0.458804   -0.029848 C.2        1 UNL1     0.3042
     55 O         -1.736634   -1.400678   -0.454178 O.2        1 UNL1     -0.2512
     56 C         -3.501089   -0.732018   0.960386 C.3        1 UNL1     0.0332
     57 C         -1.960109   1.973905   3.212637 C.3        1 UNL1     -0.0567
     58 C         1.396422   7.34322   -0.850064 C.3        1 UNL1     0.0210
     59 C         -1.720029   5.379766   3.018685 C.3        1 UNL1     0.0372
     60 C         0.224956   5.221965   0.777865 C.2        1 UNL1     -0.0208
     61 C         1.042533   5.691292   1.721287 C.2        1 UNL1     0.0882
     62 H         4.431189   3.034451   0.984053 H        1 UNL1     0.0365
     63 H         6.06308   4.050276   0.294664 H        1 UNL1     0.0576
     64 H         8.279673   2.110936   -0.612227 H        1 UNL1     0.0615
     65 H         8.000544   5.220428   -0.717135 H        1 UNL1     0.0622
     66 H         -1.841455   5.196384   0.555542 H        1 UNL1     0.0645
     67 H         -2.061088   3.51325   -0.716868 H        1 UNL1     0.0362
     68 H         -2.777644   2.277793   0.949316 H        1 UNL1     0.0741
     69 H         -1.378417   0.361163   2.130451 H        1 UNL1     0.0359
     70 H         0.651152   0.689339   3.009463 H        1 UNL1     0.0600
     71 H         1.730392   -0.321162   1.422378 H        1 UNL1     0.0348
     72 H         3.146459   1.654702   1.573248 H        1 UNL1     0.0602
     73 H         0.398874   5.460934   -0.241887 H        1 UNL1     0.0628
     74 H         0.967162   5.444887   2.780929 H        1 UNL1     0.1022
     75 H         10.971637   3.126973   -2.588653 H        1 UNL1     0.0279
     76 H         10.815877   4.344025   -3.791908 H        1 UNL1     0.0279
     77 H         11.815873   4.592309   -2.30407 H        1 UNL1     0.0279
     78 H         9.017809   5.590633   -4.232938 H        1 UNL1     0.1553
     79 H         7.827571   4.022066   -4.011234 H        1 UNL1     0.1484
     80 H         4.149856   3.162697   -4.430034 H        1 UNL1     0.0317
     81 H         4.802417   4.752555   -4.799414 H        1 UNL1     0.0317
     82 H         6.866538   3.736895   -5.800185 H        1 UNL1     0.0428
     83 H         5.396791   3.174306   -6.565064 H        1 UNL1     0.0428
     84 H         7.164089   0.577394   -3.695248 H        1 UNL1     0.0428
     85 H         7.995741   2.061455   -4.003538 H        1 UNL1     0.0428
     86 H         6.558731   1.972722   -1.965897 H        1 UNL1     0.0317
     87 H         5.140187   1.667046   -2.858447 H        1 UNL1     0.0317
     88 H         7.670156   1.62992   -6.820585 H        1 UNL1     0.0429
     89 H         7.355836   0.092499   -6.012021 H        1 UNL1     0.0429
     90 H         4.823469   0.753825   -6.970226 H        1 UNL1     0.0308
     91 H         6.849361   1.783241   -9.041668 H        1 UNL1     0.0233
     92 H         5.112095   1.516033   -9.334931 H        1 UNL1     0.0233
     93 H         5.63782   2.765924   -8.227686 H        1 UNL1     0.0233
     94 H         5.35807   -0.850241   -8.841034 H        1 UNL1     0.0233
     95 H         7.02346   -0.871281   -8.240733 H        1 UNL1     0.0233
     96 H         5.696601   -1.43611   -7.199386 H        1 UNL1     0.0233
     97 H         3.363783   10.783312   0.487478 H        1 UNL1     0.0280
     98 H         4.938787   11.518874   0.362982 H        1 UNL1     0.0280
     99 H         3.861475   11.482175   -1.064527 H        1 UNL1     0.0280
     100 H         6.086628   11.257409   -2.232317 H        1 UNL1     0.2922
     101 H         4.442842   1.143404   2.788276 H        1 UNL1     0.0236
     102 H         5.671264   2.454803   2.981336 H        1 UNL1     0.0236
     103 H         6.110849   0.885357   2.382088 H        1 UNL1     0.0236
     104 H         4.263148   -0.295595   1.561255 H        1 UNL1     0.2098
     105 H         0.676697   1.358384   -0.841226 H        1 UNL1     0.0234
     106 H         1.383263   -0.279912   -0.929803 H        1 UNL1     0.0234
     107 H         0.0   -0.0   0.0 H        1 UNL1     0.0234
     108 H         0.84299   3.276131   1.919347 H        1 UNL1     0.2098
     109 H         0.912905   3.155085   -0.686736 H        1 UNL1     0.0234
     110 H         -0.208101   2.370483   -1.844556 H        1 UNL1     0.0234
     111 H         -0.095531   4.09393   -1.767745 H        1 UNL1     0.0234
     112 H         -3.563565   -1.806178   1.159439 H        1 UNL1     0.0342
     113 H         -3.367969   -0.170609   1.883934 H        1 UNL1     0.0342
     114 H         -4.453819   -0.416376   0.513351 H        1 UNL1     0.0342
     115 H         -3.00912   1.650178   3.168292 H        1 UNL1     0.0234
     116 H         -1.571288   1.694009   4.193721 H        1 UNL1     0.0234
     117 H         -2.074724   3.07135   3.192156 H        1 UNL1     0.0234
     118 H         0.435951   7.750533   -0.488684 H        1 UNL1     0.0309
     119 H         1.778784   7.98435   -1.650661 H        1 UNL1     0.0309
     120 H         1.107257   6.400933   -1.328171 H        1 UNL1     0.0309
     121 H         -0.944432   6.142853   2.959492 H        1 UNL1     0.0524
     122 H         -2.645848   5.814774   2.606781 H        1 UNL1     0.0524
     123 H         -1.892247   5.09988   4.054107 H        1 UNL1     0.0524
@<TRIPOS>BOND
     1     1     2    1
     2     1    42    1
     3     2     3    2
     4     3     4    1
     5     4     5    2
     6     5     7    1
     7     6    75    1
     8     6    76    1
     9     6    77    1
    10     7     9   am
    11     9    10    1
    12    10    11    2
    13    10    43    1
    14    11    14    1
    15    11    15    1
    16    12    13   ar
    17    12    27   ar
    18    12    43    1
    19    13    14    1
    20    13    30   ar
    21    14    17    2
    22    15    16    1
    23    16    17    1
    24    16    18    1
    25    16    22    1
    26    18    19    1
    27    19    20    1
    28    20    21    1
    29    21    22    1
    30    23    24    1
    31    23    88    1
    32    23    89    1
    33    24    25    1
    34    24    26    1
    35    24    90    1
    36    25    91    1
    37    25    92    1
    38    25    93    1
    39    26    94    1
    40    26    95    1
    41    26    96    1
    42    27    28   ar
    43    28    29   ar
    44    29    30   ar
    45    29    31    1
    46    30    33    1
    47    31    32    1
    48    32    33    1
    49    32    35    1
    50    34    97    1
    51    34    98    1
    52    34    99    1
    53    35    61    1
    54    36    37    1
    55    36    60    1
    56    37    38    1
    57    38    39    1
    58    39    40    1
    59    40    41    1
    60    41    42    1
    61    45   100    1
    62    47   101    1
    63    47   102    1
    64    47   103    1
    65    48   104    1
    66    49   105    1
    67    49   106    1
    68    49   107    1
    69    50   108    1
    70    51    59    1
    71    52   109    1
    72    52   110    1
    73    52   111    1
    74    53    54    1
    75    54    55    2
    76    54    56    1
    77    56   112    1
    78    56   113    1
    79    56   114    1
    80    57   115    1
    81    57   116    1
    82    57   117    1
    83    58   118    1
    84    58   119    1
    85    58   120    1
    86    59   121    1
    87    59   122    1
    88    59   123    1
    89    60    61    2
    90     1    47    1
    91     1    62    1
    92     2    63    1
    93     3    64    1
    94     4    65    1
    95     5     6    1
    96     7     8    2
    97     9    78    1
    98    15    79    1
    99    18    80    1
   100    18    81    1
   101    19    82    1
   102    19    83    1
   103    20    23    1
   104    21    84    1
   105    21    85    1
   106    22    86    1
   107    22    87    1
   108    27    45    1
   109    28    34    1
   110    32    58    1
   111    33    46    2
   112    36    51    1
   113    36    66    1
   114    37    52    1
   115    37    67    1
   116    38    53    1
   117    38    68    1
   118    42    48    1
   119    42    72    1
   120    43    44    2
   121    60    73    1
   122    61    74    1
   123    39    69    1
   124    39    57    1
   125    40    70    1
   126    40    50    1
   127    41    71    1
   128    41    49    1
