@<TRIPOS>MOLECULE
*****
 123 128 0 0 0
SMALL
GASTEIGER

@<TRIPOS>ATOM
     1 C         0.625684   3.042447   -4.21842 C.3        1 UNL1     0.0009
     2 C         1.97931   3.834258   -5.207242 C.2        1 UNL1     -0.0787
     3 C         2.659124   5.021511   -5.680876 C.2        1 UNL1     -0.0649
     4 C         4.090057   5.111906   -6.581218 C.2        1 UNL1     -0.0542
     5 C         5.171349   5.944128   -6.962392 C.2        1 UNL1     0.0115
     6 C         5.701372   7.40425   -6.941371 C.3        1 UNL1     -0.0348
     7 C         6.502462   5.267293   -7.551475 C.2        1 UNL1     0.2441
     8 O         6.767217   5.249117   -8.74567 O.2        1 UNL1     -0.2702
     9 N         7.46749   4.928802   -6.586956 N.am        1 UNL1     -0.2772
     10 C         7.235752   3.66314   -6.099392 C.2        1 UNL1     0.1049
     11 C         6.335602   3.565569   -5.137919 C.2        1 UNL1     0.0801
     12 C         6.775612   1.312771   -6.821453 C.ar        1 UNL1     0.0753
     13 C         5.674062   1.330825   -5.907741 C.ar        1 UNL1     0.0305
     14 C         5.499378   2.412582   -4.941128 C.2        1 UNL1     0.0924
     15 N         5.749862   4.52593   -4.402295 N.pl3        1 UNL1     -0.3170
     16 C         4.974991   3.881632   -3.375305 C.3        1 UNL1     0.1275
     17 N         4.605442   2.542419   -3.964938 N.2        1 UNL1     -0.2557
     18 C         5.919578   3.586914   -2.214013 C.3        1 UNL1     0.0016
     19 C         6.578294   4.886967   -1.780947 C.3        1 UNL1     0.0026
     20 N         5.539872   5.82851   -1.385719 N.3        1 UNL1     -0.3018
     21 C         4.546171   6.127897   -2.418818 C.3        1 UNL1     0.0026
     22 C         3.893757   4.808646   -2.835745 C.3        1 UNL1     0.0016
     23 C         6.062761   6.980914   -0.679182 C.3        1 UNL1     0.0012
     24 C         7.200816   7.632966   -1.480067 C.3        1 UNL1     -0.0339
     25 C         6.882915   7.66598   -2.98403 C.3        1 UNL1     -0.0615
     26 C         7.488685   9.022599   -0.938929 C.3        1 UNL1     -0.0615
     27 C         7.003237   0.221098   -7.656052 C.ar        1 UNL1     0.1347
     28 C         6.223929   -0.921895   -7.638837 C.ar        1 UNL1     0.0342
     29 C         5.11657   -0.86159   -6.766322 C.ar        1 UNL1     0.1435
     30 C         4.85515   0.239923   -5.950509 C.ar        1 UNL1     0.0774
     31 O         4.326476   -1.936811   -6.554999 O.3        1 UNL1     -0.4436
     32 C         3.656273   -1.656622   -5.316777 C.3        1 UNL1     0.3143
     33 C         3.692698   -0.147998   -5.179153 C.2        1 UNL1     0.2504
     34 C         6.551631   -2.222763   -8.317404 C.3        1 UNL1     -0.0327
     35 O         2.282134   -2.027342   -5.482794 O.2        1 UNL1     -0.4528
     36 C         1.065015   -3.078012   -2.044364 C.3        1 UNL1     0.0854
     37 C         1.060134   -2.259597   -0.696144 C.3        1 UNL1     0.0236
     38 C         -0.371107   -2.141329   0.017514 C.3        1 UNL1     0.1131
     39 C         -1.625967   -1.657158   -0.815057 C.3        1 UNL1     0.0200
     40 C         -1.496777   -0.367434   -1.864989 C.3        1 UNL1     0.0661
     41 C         -0.821937   1.145901   -1.501642 C.3        1 UNL1     0.0091
     42 C         0.091342   2.328193   -2.566306 C.3        1 UNL1     0.0661
     43 C         7.719836   2.457127   -6.787542 C.2        1 UNL1     0.2131
     44 O         8.86419   2.39793   -7.199473 O.2        1 UNL1     -0.2851
     45 O         8.070345   0.302637   -8.54828 O.3        1 UNL1     -0.5056
     46 O         2.922784   0.573278   -4.585144 O.2        1 UNL1     -0.2836
     47 C         -0.733628   3.184072   -4.95476 C.3        1 UNL1     -0.0566
     48 O         -0.689679   3.50785   -2.121861 O.3        1 UNL1     -0.3909
     49 C         -0.055221   1.039055   -0.202325 C.3        1 UNL1     -0.0577
     50 O         -1.058284   -0.799059   -3.137446 O.3        1 UNL1     -0.3910
     51 O         -0.199672   -3.451284   -2.543027 O.3        1 UNL1     -0.3753
     52 C         2.070186   -1.066637   -0.736019 C.3        1 UNL1     -0.0564
     53 O         -0.295085   -1.676557   1.442482 O.3        1 UNL1     -0.4608
     54 C         -0.618967   -0.421711   1.887895 C.2        1 UNL1     0.3042
     55 O         -0.409668   0.649515   1.319999 O.2        1 UNL1     -0.2512
     56 C         -1.359757   -0.420033   3.194777 C.3        1 UNL1     0.0332
     57 C         -2.396884   -2.961337   -1.327873 C.3        1 UNL1     -0.0567
     58 C         4.52375   -2.280634   -4.198912 C.3        1 UNL1     0.0210
     59 C         -1.306072   -2.804854   -1.915434 C.3        1 UNL1     0.0372
     60 C         1.79653   -2.433213   -3.168766 C.2        1 UNL1     -0.0208
     61 C         1.457379   -2.288089   -4.450429 C.2        1 UNL1     0.0882
     62 H         1.028107   2.059258   -4.490643 H        1 UNL1     0.0365
     63 H         2.436122   2.955523   -5.66726 H        1 UNL1     0.0576
     64 H         2.373366   6.01914   -5.340013 H        1 UNL1     0.0615
     65 H         4.239877   4.088561   -6.935903 H        1 UNL1     0.0622
     66 H         1.62292   -3.995158   -1.808499 H        1 UNL1     0.0645
     67 H         1.605829   -2.90679   0.012317 H        1 UNL1     0.0362
     68 H         -0.557103   -3.204371   0.234009 H        1 UNL1     0.0741
     69 H         -2.39351   -1.327353   -0.127659 H        1 UNL1     0.0359
     70 H         -2.568296   -0.129627   -2.007663 H        1 UNL1     0.0600
     71 H         -1.73007   1.688799   -1.173748 H        1 UNL1     0.0348
     72 H         -0.458288   1.665841   -3.250787 H        1 UNL1     0.0602
     73 H         2.773308   -2.171318   -2.845403 H        1 UNL1     0.0628
     74 H         0.460581   -2.478069   -4.849854 H        1 UNL1     0.1022
     75 H         4.852248   8.129516   -6.937975 H        1 UNL1     0.0279
     76 H         6.267494   7.70224   -6.061725 H        1 UNL1     0.0279
     77 H         6.219891   7.681867   -7.870763 H        1 UNL1     0.0279
     78 H         7.408373   5.574818   -5.80258 H        1 UNL1     0.1553
     79 H         6.117455   5.454465   -4.304157 H        1 UNL1     0.1484
     80 H         5.348195   3.134946   -1.394249 H        1 UNL1     0.0317
     81 H         6.681556   2.855999   -2.505223 H        1 UNL1     0.0317
     82 H         7.211681   5.307049   -2.576098 H        1 UNL1     0.0428
     83 H         7.248861   4.653629   -0.953334 H        1 UNL1     0.0428
     84 H         3.733878   6.774176   -2.071953 H        1 UNL1     0.0428
     85 H         4.985624   6.680345   -3.260839 H        1 UNL1     0.0428
     86 H         3.085987   5.07921   -3.490184 H        1 UNL1     0.0317
     87 H         3.383713   4.355054   -1.977137 H        1 UNL1     0.0317
     88 H         5.250446   7.711091   -0.568367 H        1 UNL1     0.0429
     89 H         6.393795   6.712132   0.332226 H        1 UNL1     0.0429
     90 H         8.121457   7.056584   -1.330341 H        1 UNL1     0.0308
     91 H         7.721235   7.2869   -3.576162 H        1 UNL1     0.0233
     92 H         5.991765   7.073314   -3.203592 H        1 UNL1     0.0233
     93 H         6.671998   8.680216   -3.344133 H        1 UNL1     0.0233
     94 H         6.941306   9.184766   -0.004095 H        1 UNL1     0.0233
     95 H         8.556419   9.127209   -0.726885 H        1 UNL1     0.0233
     96 H         7.192741   9.797549   -1.651557 H        1 UNL1     0.0233
     97 H         5.660369   -2.737569   -8.663609 H        1 UNL1     0.0280
     98 H         7.180045   -2.079156   -9.206071 H        1 UNL1     0.0280
     99 H         7.080556   -2.884105   -7.61174 H        1 UNL1     0.0280
     100 H         8.490979   1.143886   -8.579744 H        1 UNL1     0.2922
     101 H         -0.579495   3.660177   -5.922862 H        1 UNL1     0.0236
     102 H         -1.490526   3.697223   -4.362506 H        1 UNL1     0.0236
     103 H         -1.179788   2.20402   -5.192737 H        1 UNL1     0.0236
     104 H         -0.11445   4.039243   -1.537307 H        1 UNL1     0.2098
     105 H         0.960572   1.423698   -0.247332 H        1 UNL1     0.0234
     106 H         -0.573921   1.44291   0.667029 H        1 UNL1     0.0234
     107 H         0.0   0.0   0.0 H        1 UNL1     0.0234
     108 H         -0.429212   -0.130059   -3.469827 H        1 UNL1     0.2098
     109 H         2.359599   -0.800754   -1.762303 H        1 UNL1     0.0234
     110 H         1.703858   -0.174965   -0.215954 H        1 UNL1     0.0234
     111 H         3.00652   -1.311589   -0.217151 H        1 UNL1     0.0234
     112 H         -0.700005   -0.07367   3.996092 H        1 UNL1     0.0342
     113 H         -2.267933   0.179177   3.149978 H        1 UNL1     0.0342
     114 H         -1.653855   -1.453585   3.423781 H        1 UNL1     0.0342
     115 H         -2.689835   -3.616239   -0.495725 H        1 UNL1     0.0234
     116 H         -3.296087   -2.745954   -1.90847 H        1 UNL1     0.0234
     117 H         -1.762952   -3.642039   -1.921774 H        1 UNL1     0.0234
     118 H         4.83532   -3.311443   -4.442556 H        1 UNL1     0.0309
     119 H         5.410824   -1.685234   -3.960582 H        1 UNL1     0.0309
     120 H         3.975644   -2.398251   -3.257715 H        1 UNL1     0.0309
     121 H         -1.560259   -3.37765   -1.024002 H        1 UNL1     0.0524
     122 H         -1.06302   -1.778814   -1.592626 H        1 UNL1     0.0524
     123 H         -2.154514   -2.769659   -2.59293 H        1 UNL1     0.0524
@<TRIPOS>BOND
     1     1     2    1
     2     1    42    1
     3     2     3    2
     4     3     4    1
     5     4     5    2
     6     5     7    1
     7     6    75    1
     8     6    76    1
     9     6    77    1
    10     7     9   am
    11     9    10    1
    12    10    11    2
    13    10    43    1
    14    11    14    1
    15    11    15    1
    16    12    13   ar
    17    12    27   ar
    18    12    43    1
    19    13    14    1
    20    13    30   ar
    21    14    17    2
    22    15    16    1
    23    16    17    1
    24    16    18    1
    25    16    22    1
    26    18    19    1
    27    19    20    1
    28    20    21    1
    29    21    22    1
    30    23    24    1
    31    23    88    1
    32    23    89    1
    33    24    25    1
    34    24    26    1
    35    24    90    1
    36    25    91    1
    37    25    92    1
    38    25    93    1
    39    26    94    1
    40    26    95    1
    41    26    96    1
    42    27    28   ar
    43    28    29   ar
    44    29    30   ar
    45    29    31    1
    46    30    33    1
    47    31    32    1
    48    32    33    1
    49    32    35    1
    50    34    97    1
    51    34    98    1
    52    34    99    1
    53    35    61    1
    54    36    37    1
    55    36    60    1
    56    37    38    1
    57    38    39    1
    58    39    40    1
    59    40    41    1
    60    41    42    1
    61    45   100    1
    62    47   101    1
    63    47   102    1
    64    47   103    1
    65    48   104    1
    66    49   105    1
    67    49   106    1
    68    49   107    1
    69    50   108    1
    70    51    59    1
    71    52   109    1
    72    52   110    1
    73    52   111    1
    74    53    54    1
    75    54    55    2
    76    54    56    1
    77    56   112    1
    78    56   113    1
    79    56   114    1
    80    57   115    1
    81    57   116    1
    82    57   117    1
    83    58   118    1
    84    58   119    1
    85    58   120    1
    86    59   121    1
    87    59   122    1
    88    59   123    1
    89    60    61    2
    90     1    47    1
    91     1    62    1
    92     2    63    1
    93     3    64    1
    94     4    65    1
    95     5     6    1
    96     7     8    2
    97     9    78    1
    98    15    79    1
    99    18    80    1
   100    18    81    1
   101    19    82    1
   102    19    83    1
   103    20    23    1
   104    21    84    1
   105    21    85    1
   106    22    86    1
   107    22    87    1
   108    27    45    1
   109    28    34    1
   110    32    58    1
   111    33    46    2
   112    36    51    1
   113    36    66    1
   114    37    52    1
   115    37    67    1
   116    38    53    1
   117    38    68    1
   118    42    48    1
   119    42    72    1
   120    43    44    2
   121    60    73    1
   122    61    74    1
   123    39    69    1
   124    39    57    1
   125    40    70    1
   126    40    50    1
   127    41    71    1
   128    41    49    1
