@<TRIPOS>MOLECULE
*****
 123 128 0 0 0
SMALL
GASTEIGER

@<TRIPOS>ATOM
     1 C         5.167658   1.755235   0.462315 C.3        1 UNL1     0.0009
     2 C         6.598797   2.562456   -0.396331 C.2        1 UNL1     -0.0787
     3 C         7.877194   2.465326   -1.068873 C.2        1 UNL1     -0.0649
     4 C         8.749103   3.700966   -1.830008 C.2        1 UNL1     -0.0542
     5 C         9.763721   3.99417   -2.774285 C.2        1 UNL1     0.0115
     6 C         10.88799   3.369464   -3.645539 C.3        1 UNL1     -0.0348
     7 C         9.85404   5.477121   -3.382306 C.2        1 UNL1     0.2441
     8 O         10.678967   6.300001   -3.009628 O.2        1 UNL1     -0.2702
     9 N         9.097291   5.682395   -4.549073 N.am        1 UNL1     -0.2772
     10 C         7.815823   6.067775   -4.228691 C.2        1 UNL1     0.1049
     11 C         6.972771   5.095565   -3.931551 C.2        1 UNL1     0.0801
     12 C         6.52313   7.673863   -2.812089 C.ar        1 UNL1     0.0753
     13 C         5.767826   6.54536   -2.359756 C.ar        1 UNL1     0.0305
     14 C         5.882834   5.239354   -3.00487 C.2        1 UNL1     0.0924
     15 N         7.09611   3.766623   -4.09039 N.pl3        1 UNL1     -0.3170
     16 C         5.828669   3.16617   -3.768982 C.3        1 UNL1     0.1275
     17 N         5.196414   4.121327   -2.786306 N.2        1 UNL1     -0.2557
     18 C         4.968971   3.223362   -5.028089 C.3        1 UNL1     0.0016
     19 C         5.718584   2.539385   -6.160274 C.3        1 UNL1     0.0026
     20 N         5.99243   1.161869   -5.774933 N.3        1 UNL1     -0.3018
     21 C         6.762627   1.003232   -4.53962 C.3        1 UNL1     0.0026
     22 C         5.989101   1.693603   -3.414924 C.3        1 UNL1     0.0016
     23 C         6.431936   0.342093   -6.886438 C.3        1 UNL1     0.0012
     24 C         5.271524   0.090575   -7.862112 C.3        1 UNL1     -0.0339
     25 C         5.358962   1.012441   -9.089538 C.3        1 UNL1     -0.0615
     26 C         5.23716   -1.373678   -8.264061 C.3        1 UNL1     -0.0615
     27 C         6.319871   8.941686   -2.272248 C.ar        1 UNL1     0.1347
     28 C         5.365669   9.210763   -1.307288 C.ar        1 UNL1     0.0342
     29 C         4.667938   8.075804   -0.842314 C.ar        1 UNL1     0.1435
     30 C         4.88618   6.793688   -1.34805 C.ar        1 UNL1     0.0774
     31 O         3.631418   8.18873   0.016685 O.3        1 UNL1     -0.4436
     32 C         2.910448   6.954961   -0.120745 C.3        1 UNL1     0.3143
     33 C         3.922044   5.962685   -0.657657 C.2        1 UNL1     0.2504
     34 C         4.919589   10.576643   -0.865153 C.3        1 UNL1     -0.0327
     35 O         2.557415   6.518748   1.197715 O.2        1 UNL1     -0.4528
     36 C         -0.685426   4.582457   0.81977 C.3        1 UNL1     0.0854
     37 C         -0.994063   3.320889   -0.075056 C.3        1 UNL1     0.0236
     38 C         -1.588874   2.059685   0.716972 C.3        1 UNL1     0.1131
     39 C         -0.855493   1.530515   2.014817 C.3        1 UNL1     0.0200
     40 C         0.806068   1.386961   2.047141 C.3        1 UNL1     0.0661
     41 C         1.760042   0.61845   0.873712 C.3        1 UNL1     0.0091
     42 C         3.464137   0.98263   0.300271 C.3        1 UNL1     0.0661
     43 C         7.467369   7.4665   -3.937999 C.2        1 UNL1     0.2131
     44 O         7.862313   8.364548   -4.659294 O.2        1 UNL1     -0.2851
     45 O         7.128431   9.977431   -2.735822 O.3        1 UNL1     -0.5056
     46 O         3.940163   4.759262   -0.526133 O.2        1 UNL1     -0.2836
     47 C         5.572267   1.327234   1.89866 C.3        1 UNL1     -0.0566
     48 O         3.914805   -0.427887   0.38062 O.3        1 UNL1     -0.3909
     49 C         0.919465   0.384005   -0.361586 C.3        1 UNL1     -0.0577
     50 O         1.406931   2.605806   2.435861 O.3        1 UNL1     -0.3910
     51 O         -0.801794   4.393613   2.211973 O.3        1 UNL1     -0.3753
     52 C         0.044358   3.160841   -1.233078 C.3        1 UNL1     -0.0564
     53 O         -2.195085   1.019359   -0.178883 O.3        1 UNL1     -0.4608
     54 C         -2.394962   -0.295539   0.151302 C.2        1 UNL1     0.3042
     55 O         -1.813312   -1.277666   -0.307989 O.2        1 UNL1     -0.2512
     56 C         -3.410225   -0.494465   1.240514 C.3        1 UNL1     0.0332
     57 C         -1.570507   2.199546   3.279462 C.3        1 UNL1     -0.0567
     58 C         1.829138   7.198019   -1.199273 C.3        1 UNL1     0.0210
     59 C         -1.112394   5.57277   2.952907 C.3        1 UNL1     0.0372
     60 C         0.641563   5.212944   0.581556 C.2        1 UNL1     -0.0208
     61 C         1.558654   5.649866   1.445724 C.2        1 UNL1     0.0882
     62 H         4.691052   2.738907   0.551457 H        1 UNL1     0.0365
     63 H         6.331875   3.616015   -0.290331 H        1 UNL1     0.0576
     64 H         8.334793   1.49886   -1.291707 H        1 UNL1     0.0615
     65 H         8.262815   4.616033   -1.481211 H        1 UNL1     0.0622
     66 H         -1.43262   5.327887   0.513043 H        1 UNL1     0.0645
     67 H         -1.863259   3.628802   -0.68189 H        1 UNL1     0.0362
     68 H         -2.53455   2.495695   1.073504 H        1 UNL1     0.0741
     69 H         -1.184763   0.519166   2.212713 H        1 UNL1     0.0359
     70 H         0.923373   0.727387   2.928199 H        1 UNL1     0.0600
     71 H         1.807132   -0.402361   1.30113 H        1 UNL1     0.0348
     72 H         3.362962   1.471405   1.280158 H        1 UNL1     0.0602
     73 H         0.753634   5.409596   -0.455756 H        1 UNL1     0.0628
     74 H         1.547127   5.439942   2.515788 H        1 UNL1     0.1022
     75 H         10.915876   2.260919   -3.51369 H        1 UNL1     0.0279
     76 H         10.78186   3.474636   -4.722917 H        1 UNL1     0.0279
     77 H         11.895361   3.653406   -3.307484 H        1 UNL1     0.0279
     78 H         9.033488   4.812001   -5.072925 H        1 UNL1     0.1553
     79 H         7.758545   3.338977   -4.711059 H        1 UNL1     0.1484
     80 H         4.009331   2.731435   -4.828425 H        1 UNL1     0.0317
     81 H         4.73968   4.259654   -5.298597 H        1 UNL1     0.0317
     82 H         6.647268   3.071604   -6.413653 H        1 UNL1     0.0428
     83 H         5.088566   2.593157   -7.048664 H        1 UNL1     0.0428
     84 H         6.885844   -0.039358   -4.230367 H        1 UNL1     0.0428
     85 H         7.79171   1.372402   -4.649254 H        1 UNL1     0.0428
     86 H         6.510711   1.444496   -2.509465 H        1 UNL1     0.0317
     87 H         5.01091   1.214904   -3.284215 H        1 UNL1     0.0317
     88 H         7.224503   0.884449   -7.418398 H        1 UNL1     0.0429
     89 H         6.867534   -0.60292   -6.537181 H        1 UNL1     0.0429
     90 H         4.322156   0.282466   -7.348214 H        1 UNL1     0.0308
     91 H         6.31163   0.888331   -9.613105 H        1 UNL1     0.0233
     92 H         4.539489   0.810679   -9.783344 H        1 UNL1     0.0233
     93 H         5.278884   2.072991   -8.821852 H        1 UNL1     0.0233
     94 H         4.556027   -1.517305   -9.109795 H        1 UNL1     0.0233
     95 H         6.233826   -1.699317   -8.57483 H        1 UNL1     0.0233
     96 H         4.90066   -2.006448   -7.438023 H        1 UNL1     0.0233
     97 H         4.123982   10.526582   -0.127769 H        1 UNL1     0.0280
     98 H         5.73181   11.144499   -0.392826 H        1 UNL1     0.0280
     99 H         4.549353   11.1435   -1.735034 H        1 UNL1     0.0280
     100 H         6.658798   10.727785   -3.055255 H        1 UNL1     0.2922
     101 H         4.709572   0.904356   2.413041 H        1 UNL1     0.0236
     102 H         6.03629   2.130154   2.470486 H        1 UNL1     0.0236
     103 H         6.320281   0.516896   1.894082 H        1 UNL1     0.0236
     104 H         4.333829   -0.554334   1.254348 H        1 UNL1     0.2098
     105 H         0.702664   1.282173   -0.934389 H        1 UNL1     0.0234
     106 H         1.286239   -0.404052   -1.019134 H        1 UNL1     0.0234
     107 H         0.0   -0.0   0.0 H        1 UNL1     0.0234
     108 H         1.218848   3.258672   1.73432 H        1 UNL1     0.2098
     109 H         1.072796   3.06124   -0.858767 H        1 UNL1     0.0234
     110 H         -0.184056   2.325379   -1.90358 H        1 UNL1     0.0234
     111 H         0.052162   4.037964   -1.893789 H        1 UNL1     0.0234
     112 H         -3.50634   -1.560128   1.469577 H        1 UNL1     0.0342
     113 H         -3.168332   0.077216   2.135228 H        1 UNL1     0.0342
     114 H         -4.38274   -0.140173   0.871928 H        1 UNL1     0.0342
     115 H         -2.642195   1.960198   3.316681 H        1 UNL1     0.0234
     116 H         -1.136211   1.911481   4.238865 H        1 UNL1     0.0234
     117 H         -1.599741   3.301911   3.236123 H        1 UNL1     0.0234
     118 H         0.927871   7.679926   -0.781552 H        1 UNL1     0.0309
     119 H         2.191959   7.789721   -2.045708 H        1 UNL1     0.0309
     120 H         1.442683   6.265414   -1.624721 H        1 UNL1     0.0309
     121 H         -0.275758   6.261989   2.841666 H        1 UNL1     0.0524
     122 H         -2.013961   6.080857   2.572038 H        1 UNL1     0.0524
     123 H         -1.260973   5.329715   4.001212 H        1 UNL1     0.0524
@<TRIPOS>BOND
     1     1     2    1
     2     1    42    1
     3     2     3    2
     4     3     4    1
     5     4     5    2
     6     5     7    1
     7     6    75    1
     8     6    76    1
     9     6    77    1
    10     7     9   am
    11     9    10    1
    12    10    11    2
    13    10    43    1
    14    11    14    1
    15    11    15    1
    16    12    13   ar
    17    12    27   ar
    18    12    43    1
    19    13    14    1
    20    13    30   ar
    21    14    17    2
    22    15    16    1
    23    16    17    1
    24    16    18    1
    25    16    22    1
    26    18    19    1
    27    19    20    1
    28    20    21    1
    29    21    22    1
    30    23    24    1
    31    23    88    1
    32    23    89    1
    33    24    25    1
    34    24    26    1
    35    24    90    1
    36    25    91    1
    37    25    92    1
    38    25    93    1
    39    26    94    1
    40    26    95    1
    41    26    96    1
    42    27    28   ar
    43    28    29   ar
    44    29    30   ar
    45    29    31    1
    46    30    33    1
    47    31    32    1
    48    32    33    1
    49    32    35    1
    50    34    97    1
    51    34    98    1
    52    34    99    1
    53    35    61    1
    54    36    37    1
    55    36    60    1
    56    37    38    1
    57    38    39    1
    58    39    40    1
    59    40    41    1
    60    41    42    1
    61    45   100    1
    62    47   101    1
    63    47   102    1
    64    47   103    1
    65    48   104    1
    66    49   105    1
    67    49   106    1
    68    49   107    1
    69    50   108    1
    70    51    59    1
    71    52   109    1
    72    52   110    1
    73    52   111    1
    74    53    54    1
    75    54    55    2
    76    54    56    1
    77    56   112    1
    78    56   113    1
    79    56   114    1
    80    57   115    1
    81    57   116    1
    82    57   117    1
    83    58   118    1
    84    58   119    1
    85    58   120    1
    86    59   121    1
    87    59   122    1
    88    59   123    1
    89    60    61    2
    90     1    47    1
    91     1    62    1
    92     2    63    1
    93     3    64    1
    94     4    65    1
    95     5     6    1
    96     7     8    2
    97     9    78    1
    98    15    79    1
    99    18    80    1
   100    18    81    1
   101    19    82    1
   102    19    83    1
   103    20    23    1
   104    21    84    1
   105    21    85    1
   106    22    86    1
   107    22    87    1
   108    27    45    1
   109    28    34    1
   110    32    58    1
   111    33    46    2
   112    36    51    1
   113    36    66    1
   114    37    52    1
   115    37    67    1
   116    38    53    1
   117    38    68    1
   118    42    48    1
   119    42    72    1
   120    43    44    2
   121    60    73    1
   122    61    74    1
   123    39    69    1
   124    39    57    1
   125    40    70    1
   126    40    50    1
   127    41    71    1
   128    41    49    1
