@<TRIPOS>MOLECULE
*****
 123 128 0 0 0
SMALL
GASTEIGER

@<TRIPOS>ATOM
     1 C         -2.103632   2.48975   -2.533694 C.3        1 UNL1     0.0009
     2 C         -3.728226   3.326563   -2.221482 C.2        1 UNL1     -0.0787
     3 C         -5.171684   3.347874   -2.331125 C.2        1 UNL1     -0.0649
     4 C         -6.249215   4.472288   -1.667064 C.2        1 UNL1     -0.0542
     5 C         -7.593463   4.707608   -1.286669 C.2        1 UNL1     0.0115
     6 C         -9.039274   4.145164   -1.367981 C.3        1 UNL1     -0.0348
     7 C         -7.915681   5.914927   -0.278927 C.2        1 UNL1     0.2441
     8 O         -8.373266   6.987125   -0.649781 O.2        1 UNL1     -0.2702
     9 N         -7.883857   5.569462   1.083348 N.am        1 UNL1     -0.2772
     10 C         -6.609721   5.707642   1.584153 C.2        1 UNL1     0.1049
     11 C         -5.789146   4.694108   1.375283 C.2        1 UNL1     0.0801
     12 C         -4.681243   7.297391   1.689065 C.ar        1 UNL1     0.0753
     13 C         -3.86066   6.207705   1.255666 C.ar        1 UNL1     0.0305
     14 C         -4.367879   4.838078   1.212033 C.2        1 UNL1     0.0924
     15 N         -6.046595   3.451145   0.933365 N.pl3        1 UNL1     -0.3170
     16 C         -4.834835   2.683965   1.048814 C.3        1 UNL1     0.1275
     17 N         -3.729065   3.70481   0.935363 N.2        1 UNL1     -0.2557
     18 C         -4.772572   2.149097   2.476309 C.3        1 UNL1     0.0016
     19 C         -6.042916   1.36219   2.756651 C.3        1 UNL1     0.0026
     20 N         -6.141489   0.274361   1.793355 N.3        1 UNL1     -0.3018
     21 C         -6.145908   0.686669   0.388239 C.3        1 UNL1     0.0026
     22 C         -4.858976   1.471382   0.127615 C.3        1 UNL1     0.0016
     23 C         -7.145526   -0.707379   2.152158 C.3        1 UNL1     0.0012
     24 C         -6.694448   -1.515465   3.379058 C.3        1 UNL1     -0.0339
     25 C         -7.1881   -2.969831   3.307056 C.3        1 UNL1     -0.0615
     26 C         -5.184155   -1.444257   3.523011 C.3        1 UNL1     -0.0615
     27 C         -4.157192   8.578676   1.843335 C.ar        1 UNL1     0.1347
     28 C         -2.823968   8.882837   1.63346 C.ar        1 UNL1     0.0342
     29 C         -2.045721   7.805059   1.160288 C.ar        1 UNL1     0.1435
     30 C         -2.565094   6.524481   0.9664 C.ar        1 UNL1     0.0774
     31 O         -0.707157   7.913337   1.013565 O.3        1 UNL1     -0.4436
     32 C         -0.233987   6.558169   0.991147 C.3        1 UNL1     0.3143
     33 C         -1.426112   5.729455   0.557229 C.2        1 UNL1     0.2504
     34 C         -2.141238   10.165898   2.017822 C.3        1 UNL1     -0.0327
     35 O         0.741649   6.464867   -0.054167 O.2        1 UNL1     -0.4528
     36 C         3.184467   3.773303   1.039547 C.3        1 UNL1     0.0854
     37 C         2.905486   2.266239   1.411635 C.3        1 UNL1     0.0236
     38 C         3.763644   1.195247   0.582007 C.3        1 UNL1     0.1131
     39 C         3.804363   1.275611   -0.997282 C.3        1 UNL1     0.0200
     40 C         2.408308   1.559081   -1.865102 C.3        1 UNL1     0.0661
     41 C         0.938803   0.731811   -1.681279 C.3        1 UNL1     0.0091
     42 C         -0.788348   1.312291   -1.894336 C.3        1 UNL1     0.0661
     43 C         -6.088239   6.999455   2.054928 C.2        1 UNL1     0.2131
     44 O         -6.758578   7.707908   2.783955 O.2        1 UNL1     -0.2851
     45 O         -5.033601   9.592474   2.224859 O.3        1 UNL1     -0.5056
     46 O         -1.43398   4.663566   -0.016941 O.2        1 UNL1     -0.2836
     47 C         -1.706031   2.624562   -4.028257 C.3        1 UNL1     -0.0566
     48 O         -1.200054   0.145821   -2.712237 O.3        1 UNL1     -0.3909
     49 C         0.982418   -0.06018   -0.393513 C.3        1 UNL1     -0.0577
     50 O         2.16931   2.946459   -1.990741 O.3        1 UNL1     -0.3910
     51 O         4.011809   3.988073   -0.081529 O.3        1 UNL1     -0.3753
     52 C         1.404219   2.02533   1.776477 C.3        1 UNL1     -0.0564
     53 O         3.747338   -0.180846   1.180695 O.3        1 UNL1     -0.4608
     54 C         3.715478   -1.354846   0.474552 C.2        1 UNL1     0.3042
     55 O         2.745079   -2.087749   0.287419 O.2        1 UNL1     -0.2512
     56 C         5.027842   -1.707187   -0.165971 C.3        1 UNL1     0.0332
     57 C         5.11494   2.096902   -1.404767 C.3        1 UNL1     -0.0567
     58 C         0.121207   6.194663   2.451705 C.3        1 UNL1     0.0210
     59 C         5.32039   4.468725   0.222532 C.3        1 UNL1     0.0372
     60 C         1.968023   4.607675   0.84144 C.2        1 UNL1     -0.0208
     61 C         1.673246   5.493828   -0.110707 C.2        1 UNL1     0.0882
     62 H         -1.602159   3.307072   -2.001509 H        1 UNL1     0.0365
     63 H         -3.391595   4.264641   -1.775211 H        1 UNL1     0.0576
     64 H         -5.727118   2.501694   -2.741711 H        1 UNL1     0.0615
     65 H         -5.605338   5.301818   -1.36246 H        1 UNL1     0.0622
     66 H         3.692496   4.186109   1.922465 H        1 UNL1     0.0645
     67 H         3.334847   2.155795   2.422581 H        1 UNL1     0.0362
     68 H         4.775484   1.473034   0.914477 H        1 UNL1     0.0741
     69 H         4.135567   0.321824   -1.385874 H        1 UNL1     0.0359
     70 H         2.742371   1.24365   -2.872061 H        1 UNL1     0.0600
     71 H         1.072875   -0.069895   -2.433775 H        1 UNL1     0.0348
     72 H         -0.157533   2.032042   -2.435952 H        1 UNL1     0.0602
     73 H         1.333017   4.505446   1.686168 H        1 UNL1     0.0628
     74 H         2.239876   5.618213   -1.034123 H        1 UNL1     0.1022
     75 H         -9.283076   3.840375   -2.414259 H        1 UNL1     0.0279
     76 H         -9.238067   3.235055   -0.806509 H        1 UNL1     0.0279
     77 H         -9.805111   4.912274   -1.181602 H        1 UNL1     0.0279
     78 H         -8.152894   4.594182   1.195266 H        1 UNL1     0.1553
     79 H         -6.958509   3.032649   0.947709 H        1 UNL1     0.1484
     80 H         -3.880203   1.52074   2.584063 H        1 UNL1     0.0317
     81 H         -4.668438   2.967581   3.19665 H        1 UNL1     0.0317
     82 H         -6.935508   2.004035   2.721596 H        1 UNL1     0.0428
     83 H         -5.978459   0.991448   3.780099 H        1 UNL1     0.0428
     84 H         -6.140068   -0.151935   -0.314983 H        1 UNL1     0.0428
     85 H         -7.055619   1.24579   0.129149 H        1 UNL1     0.0428
     86 H         -4.832772   1.640611   -0.932887 H        1 UNL1     0.0317
     87 H         -3.986812   0.830016   0.303899 H        1 UNL1     0.0317
     88 H         -8.070239   -0.172974   2.406349 H        1 UNL1     0.0429
     89 H         -7.377699   -1.367649   1.306633 H        1 UNL1     0.0429
     90 H         -7.103812   -1.052194   4.284604 H        1 UNL1     0.0308
     91 H         -6.929045   -3.523173   4.214693 H        1 UNL1     0.0233
     92 H         -8.270564   -3.003671   3.163056 H        1 UNL1     0.0233
     93 H         -6.750209   -3.518249   2.464248 H        1 UNL1     0.0233
     94 H         -4.821171   -2.289412   4.117815 H        1 UNL1     0.0233
     95 H         -4.712007   -1.497762   2.538036 H        1 UNL1     0.0233
     96 H         -4.87331   -0.517612   4.013597 H        1 UNL1     0.0233
     97 H         -1.310912   9.997961   2.697223 H        1 UNL1     0.0280
     98 H         -1.717851   10.685896   1.148568 H        1 UNL1     0.0280
     99 H         -2.863931   10.834241   2.513934 H        1 UNL1     0.0280
     100 H         -5.827237   9.63417   1.72085 H        1 UNL1     0.2922
     101 H         -0.920758   3.372809   -4.133751 H        1 UNL1     0.0236
     102 H         -2.554498   2.827322   -4.680925 H        1 UNL1     0.0236
     103 H         -1.262567   1.695723   -4.424226 H        1 UNL1     0.0236
     104 H         -0.535355   -0.557843   -2.57806 H        1 UNL1     0.2098
     105 H         1.225851   -1.111969   -0.521156 H        1 UNL1     0.0234
     106 H         1.600363   0.378214   0.389993 H        1 UNL1     0.0234
     107 H         0.0   0.0   0.0 H        1 UNL1     0.0234
     108 H         1.247711   3.0557   -2.29486 H        1 UNL1     0.2098
     109 H         1.086805   2.618963   2.645131 H        1 UNL1     0.0234
     110 H         0.722911   2.208686   0.938656 H        1 UNL1     0.0234
     111 H         1.216695   0.97786   2.04775 H        1 UNL1     0.0234
     112 H         4.928553   -2.640178   -0.729012 H        1 UNL1     0.0342
     113 H         5.40192   -0.905537   -0.801004 H        1 UNL1     0.0342
     114 H         5.765532   -1.871925   0.631424 H        1 UNL1     0.0342
     115 H         5.553405   1.727531   -2.342051 H        1 UNL1     0.0234
     116 H         4.948443   3.169715   -1.520522 H        1 UNL1     0.0234
     117 H         5.9572   1.956464   -0.705613 H        1 UNL1     0.0234
     118 H         1.21006   6.086361   2.598932 H        1 UNL1     0.0309
     119 H         -0.26905   6.912478   3.180158 H        1 UNL1     0.0309
     120 H         -0.272383   5.216514   2.749054 H        1 UNL1     0.0309
     121 H         5.681073   5.0161   -0.647897 H        1 UNL1     0.0524
     122 H         5.321996   5.165708   1.077078 H        1 UNL1     0.0524
     123 H         5.983968   3.637669   0.444124 H        1 UNL1     0.0524
@<TRIPOS>BOND
     1     1     2    1
     2     1    42    1
     3     2     3    2
     4     3     4    1
     5     4     5    2
     6     5     7    1
     7     6    75    1
     8     6    76    1
     9     6    77    1
    10     7     9   am
    11     9    10    1
    12    10    11    2
    13    10    43    1
    14    11    14    1
    15    11    15    1
    16    12    13   ar
    17    12    27   ar
    18    12    43    1
    19    13    14    1
    20    13    30   ar
    21    14    17    2
    22    15    16    1
    23    16    17    1
    24    16    18    1
    25    16    22    1
    26    18    19    1
    27    19    20    1
    28    20    21    1
    29    21    22    1
    30    23    24    1
    31    23    88    1
    32    23    89    1
    33    24    25    1
    34    24    26    1
    35    24    90    1
    36    25    91    1
    37    25    92    1
    38    25    93    1
    39    26    94    1
    40    26    95    1
    41    26    96    1
    42    27    28   ar
    43    28    29   ar
    44    29    30   ar
    45    29    31    1
    46    30    33    1
    47    31    32    1
    48    32    33    1
    49    32    35    1
    50    34    97    1
    51    34    98    1
    52    34    99    1
    53    35    61    1
    54    36    37    1
    55    36    60    1
    56    37    38    1
    57    38    39    1
    58    39    40    1
    59    40    41    1
    60    41    42    1
    61    45   100    1
    62    47   101    1
    63    47   102    1
    64    47   103    1
    65    48   104    1
    66    49   105    1
    67    49   106    1
    68    49   107    1
    69    50   108    1
    70    51    59    1
    71    52   109    1
    72    52   110    1
    73    52   111    1
    74    53    54    1
    75    54    55    2
    76    54    56    1
    77    56   112    1
    78    56   113    1
    79    56   114    1
    80    57   115    1
    81    57   116    1
    82    57   117    1
    83    58   118    1
    84    58   119    1
    85    58   120    1
    86    59   121    1
    87    59   122    1
    88    59   123    1
    89    60    61    2
    90     1    47    1
    91     1    62    1
    92     2    63    1
    93     3    64    1
    94     4    65    1
    95     5     6    1
    96     7     8    2
    97     9    78    1
    98    15    79    1
    99    18    80    1
   100    18    81    1
   101    19    82    1
   102    19    83    1
   103    20    23    1
   104    21    84    1
   105    21    85    1
   106    22    86    1
   107    22    87    1
   108    27    45    1
   109    28    34    1
   110    32    58    1
   111    33    46    2
   112    36    51    1
   113    36    66    1
   114    37    52    1
   115    37    67    1
   116    38    53    1
   117    38    68    1
   118    42    48    1
   119    42    72    1
   120    43    44    2
   121    60    73    1
   122    61    74    1
   123    39    69    1
   124    39    57    1
   125    40    70    1
   126    40    50    1
   127    41    71    1
   128    41    49    1
