@<TRIPOS>MOLECULE
*****
 123 128 0 0 0
SMALL
GASTEIGER

@<TRIPOS>ATOM
     1 C         -4.885507   2.218186   -0.05666 C.3        1 UNL1     0.0009
     2 C         -6.539877   2.104411   -0.885607 C.2        1 UNL1     -0.0787
     3 C         -7.546459   2.664332   -1.76272 C.2        1 UNL1     -0.0649
     4 C         -8.986215   1.944571   -2.287511 C.2        1 UNL1     -0.0542
     5 C         -10.006691   1.971094   -3.269856 C.2        1 UNL1     0.0115
     6 C         -10.589073   2.78936   -4.455012 C.3        1 UNL1     -0.0348
     7 C         -10.944623   0.680915   -3.450718 C.2        1 UNL1     0.2441
     8 O         -12.083587   0.618994   -3.008617 O.2        1 UNL1     -0.2702
     9 N         -10.468932   -0.268622   -4.371722 N.am        1 UNL1     -0.2772
     10 C         -9.633067   -1.166016   -3.747754 C.2        1 UNL1     0.1049
     11 C         -8.378479   -0.783084   -3.594148 C.2        1 UNL1     0.0801
     12 C         -9.46303   -2.658042   -1.747184 C.ar        1 UNL1     0.0753
     13 C         -8.187192   -2.056398   -1.504551 C.ar        1 UNL1     0.0305
     14 C         -7.547246   -1.193692   -2.495136 C.2        1 UNL1     0.0924
     15 N         -7.721197   0.258532   -4.13224 N.pl3        1 UNL1     -0.3170
     16 C         -6.331607   0.129598   -3.781998 C.3        1 UNL1     0.1275
     17 N         -6.339125   -0.637628   -2.482371 N.2        1 UNL1     -0.2557
     18 C         -5.688791   -0.791965   -4.814089 C.3        1 UNL1     0.0016
     19 C         -5.936248   -0.217665   -6.199922 C.3        1 UNL1     0.0026
     20 N         -5.362064   1.119325   -6.261576 N.3        1 UNL1     -0.3018
     21 C         -5.873955   2.062352   -5.265063 C.3        1 UNL1     0.0026
     22 C         -5.610749   1.467581   -3.880554 C.3        1 UNL1     0.0016
     23 C         -5.277212   1.634834   -7.613498 C.3        1 UNL1     0.0012
     24 C         -6.624552   2.233403   -8.047255 C.3        1 UNL1     -0.0339
     25 C         -7.795441   1.597892   -7.279659 C.3        1 UNL1     -0.0615
     26 C         -6.601248   3.742972   -7.881612 C.3        1 UNL1     -0.0615
     27 C         -10.011189   -3.573644   -0.852024 C.ar        1 UNL1     0.1347
     28 C         -9.362089   -3.994066   0.295131 C.ar        1 UNL1     0.0342
     29 C         -8.129416   -3.351771   0.538318 C.ar        1 UNL1     0.1435
     30 C         -7.584562   -2.405934   -0.331019 C.ar        1 UNL1     0.0774
     31 O         -7.325772   -3.731059   1.555817 O.3        1 UNL1     -0.4436
     32 C         -6.031058   -3.219357   1.205461 C.3        1 UNL1     0.3143
     33 C         -6.302855   -2.0717   0.254029 C.2        1 UNL1     0.2504
     34 C         -9.7698   -5.150052   1.165515 C.3        1 UNL1     -0.0327
     35 O         -5.461976   -2.65192   2.391806 O.2        1 UNL1     -0.4528
     36 C         -1.704468   -3.05993   2.041442 C.3        1 UNL1     0.0854
     37 C         -0.748679   -2.54446   0.897642 C.3        1 UNL1     0.0236
     38 C         0.479483   -1.642943   1.398272 C.3        1 UNL1     0.1131
     39 C         0.211591   -0.414166   2.357757 C.3        1 UNL1     0.0200
     40 C         -1.066236   0.618926   2.070849 C.3        1 UNL1     0.0661
     41 C         -1.433538   1.357309   0.588456 C.3        1 UNL1     0.0091
     42 C         -3.051008   1.826963   -0.138607 C.3        1 UNL1     0.0661
     43 C         -10.142996   -2.34254   -3.027952 C.2        1 UNL1     0.2131
     44 O         -10.997658   -3.050845   -3.528545 O.2        1 UNL1     -0.2851
     45 O         -11.27772   -4.078129   -1.139827 O.3        1 UNL1     -0.5056
     46 O         -5.624781   -1.091118   0.043014 O.2        1 UNL1     -0.2836
     47 C         -4.938992   3.233095   1.116831 C.3        1 UNL1     -0.0566
     48 O         -2.609632   3.188209   -0.527598 O.3        1 UNL1     -0.3909
     49 C         -0.638646   0.678866   -0.504868 C.3        1 UNL1     -0.0577
     50 O         -2.248333   0.133764   2.674991 O.3        1 UNL1     -0.3910
     51 O         -1.46937   -2.529656   3.326343 O.3        1 UNL1     -0.3753
     52 C         -1.533636   -2.224107   -0.416195 C.3        1 UNL1     -0.0564
     53 O         1.55213   -1.461785   0.364379 O.3        1 UNL1     -0.4608
     54 C         1.743881   -0.336382   -0.393664 C.2        1 UNL1     0.3042
     55 O         1.307784   -0.112814   -1.522236 O.2        1 UNL1     -0.2512
     56 C         2.536518   0.731471   0.304999 C.3        1 UNL1     0.0332
     57 C         0.442279   -0.915278   3.859039 C.3        1 UNL1     -0.0567
     58 C         -5.309207   -4.34775   0.43268 C.3        1 UNL1     0.0210
     59 C         -0.859598   -1.239751   3.34007 C.3        1 UNL1     0.0372
     60 C         -3.158165   -2.894681   1.768276 C.2        1 UNL1     -0.0208
     61 C         -4.14021   -2.44998   2.553497 C.2        1 UNL1     0.0882
     62 H         -5.057087   1.226553   0.379157 H        1 UNL1     0.0365
     63 H         -6.922879   1.179387   -0.449591 H        1 UNL1     0.0576
     64 H         -7.372204   3.589193   -2.317133 H        1 UNL1     0.0615
     65 H         -9.104653   1.084187   -1.623285 H        1 UNL1     0.0622
     66 H         -1.526807   -4.143829   2.082028 H        1 UNL1     0.0645
     67 H         -0.227056   -3.454512   0.553729 H        1 UNL1     0.0362
     68 H         1.012119   -2.383445   2.01429 H        1 UNL1     0.0741
     69 H         1.06557   0.248975   2.320711 H        1 UNL1     0.0359
     70 H         -0.764221   1.475895   2.70287 H        1 UNL1     0.0600
     71 H         -0.877186   2.30825   0.703086 H        1 UNL1     0.0348
     72 H         -3.226176   1.710069   0.94073 H        1 UNL1     0.0602
     73 H         -3.386185   -3.319014   0.822128 H        1 UNL1     0.0628
     74 H         -3.986187   -1.949675   3.510163 H        1 UNL1     0.1022
     75 H         -11.103956   2.11523   -5.181289 H        1 UNL1     0.0279
     76 H         -11.367154   3.509328   -4.211486 H        1 UNL1     0.0279
     77 H         -9.80817   3.234735   -5.088678 H        1 UNL1     0.0279
     78 H         -9.929531   0.198994   -5.097297 H        1 UNL1     0.1553
     79 H         -8.032627   0.75204   -4.94857 H        1 UNL1     0.1484
     80 H         -4.616274   -0.874893   -4.600555 H        1 UNL1     0.0317
     81 H         -6.101239   -1.804303   -4.745472 H        1 UNL1     0.0317
     82 H         -7.007728   -0.20011   -6.447984 H        1 UNL1     0.0428
     83 H         -5.471191   -0.891109   -6.920509 H        1 UNL1     0.0428
     84 H         -5.370143   3.033809   -5.281014 H        1 UNL1     0.0428
     85 H         -6.930931   2.307084   -5.438916 H        1 UNL1     0.0428
     86 H         -5.874642   2.237698   -3.179648 H        1 UNL1     0.0317
     87 H         -4.532183   1.342056   -3.725524 H        1 UNL1     0.0317
     88 H         -4.52036   2.429964   -7.628947 H        1 UNL1     0.0429
     89 H         -4.943829   0.859802   -8.315605 H        1 UNL1     0.0429
     90 H         -6.769938   2.051869   -9.118759 H        1 UNL1     0.0308
     91 H         -7.601779   1.579286   -6.202974 H        1 UNL1     0.0233
     92 H         -8.722632   2.144239   -7.46789 H        1 UNL1     0.0233
     93 H         -7.983126   0.561985   -7.587075 H        1 UNL1     0.0233
     94 H         -7.123534   4.222653   -8.716453 H        1 UNL1     0.0233
     95 H         -7.112647   4.025346   -6.957112 H        1 UNL1     0.0233
     96 H         -5.57709   4.12511   -7.849359 H        1 UNL1     0.0233
     97 H         -10.655964   -4.925965   1.7518 H        1 UNL1     0.0280
     98 H         -10.016454   -6.043848   0.577682 H        1 UNL1     0.0280
     99 H         -8.94963   -5.39678   1.859447 H        1 UNL1     0.0280
     100 H         -11.624082   -3.814027   -1.974037 H        1 UNL1     0.2922
     101 H         -5.971623   3.371435   1.436505 H        1 UNL1     0.0236
     102 H         -4.451614   4.180029   0.887133 H        1 UNL1     0.0236
     103 H         -4.416517   2.858187   2.012743 H        1 UNL1     0.0236
     104 H         -2.27212   3.138413   -1.443336 H        1 UNL1     0.2098
     105 H         -1.239403   0.10923   -1.209436 H        1 UNL1     0.0234
     106 H         0.051357   1.332279   -1.038604 H        1 UNL1     0.0234
     107 H         0.0   0.0   0.0 H        1 UNL1     0.0234
     108 H         -1.989479   -0.586108   3.282071 H        1 UNL1     0.2098
     109 H         -1.622954   -3.101528   -1.071836 H        1 UNL1     0.0234
     110 H         -2.527323   -1.801831   -0.231773 H        1 UNL1     0.0234
     111 H         -1.025048   -1.456481   -1.014555 H        1 UNL1     0.0234
     112 H         3.093488   1.321784   -0.428936 H        1 UNL1     0.0342
     113 H         1.907458   1.369829   0.923567 H        1 UNL1     0.0342
     114 H         3.264882   0.241288   0.965584 H        1 UNL1     0.0342
     115 H         1.263902   -1.64172   3.925411 H        1 UNL1     0.0234
     116 H         0.655983   -0.112239   4.567211 H        1 UNL1     0.0234
     117 H         -0.398601   -1.507467   4.259256 H        1 UNL1     0.0234
     118 H         -5.497118   -5.340703   0.877362 H        1 UNL1     0.0309
     119 H         -5.57047   -4.375953   -0.629934 H        1 UNL1     0.0309
     120 H         -4.218474   -4.254653   0.474399 H        1 UNL1     0.0309
     121 H         -1.080946   -0.780673   4.303194 H        1 UNL1     0.0524
     122 H         0.237472   -1.294549   3.242741 H        1 UNL1     0.0524
     123 H         -1.255004   -0.628504   2.533766 H        1 UNL1     0.0524
@<TRIPOS>BOND
     1     1     2    1
     2     1    42    1
     3     2     3    2
     4     3     4    1
     5     4     5    2
     6     5     7    1
     7     6    75    1
     8     6    76    1
     9     6    77    1
    10     7     9   am
    11     9    10    1
    12    10    11    2
    13    10    43    1
    14    11    14    1
    15    11    15    1
    16    12    13   ar
    17    12    27   ar
    18    12    43    1
    19    13    14    1
    20    13    30   ar
    21    14    17    2
    22    15    16    1
    23    16    17    1
    24    16    18    1
    25    16    22    1
    26    18    19    1
    27    19    20    1
    28    20    21    1
    29    21    22    1
    30    23    24    1
    31    23    88    1
    32    23    89    1
    33    24    25    1
    34    24    26    1
    35    24    90    1
    36    25    91    1
    37    25    92    1
    38    25    93    1
    39    26    94    1
    40    26    95    1
    41    26    96    1
    42    27    28   ar
    43    28    29   ar
    44    29    30   ar
    45    29    31    1
    46    30    33    1
    47    31    32    1
    48    32    33    1
    49    32    35    1
    50    34    97    1
    51    34    98    1
    52    34    99    1
    53    35    61    1
    54    36    37    1
    55    36    60    1
    56    37    38    1
    57    38    39    1
    58    39    40    1
    59    40    41    1
    60    41    42    1
    61    45   100    1
    62    47   101    1
    63    47   102    1
    64    47   103    1
    65    48   104    1
    66    49   105    1
    67    49   106    1
    68    49   107    1
    69    50   108    1
    70    51    59    1
    71    52   109    1
    72    52   110    1
    73    52   111    1
    74    53    54    1
    75    54    55    2
    76    54    56    1
    77    56   112    1
    78    56   113    1
    79    56   114    1
    80    57   115    1
    81    57   116    1
    82    57   117    1
    83    58   118    1
    84    58   119    1
    85    58   120    1
    86    59   121    1
    87    59   122    1
    88    59   123    1
    89    60    61    2
    90     1    47    1
    91     1    62    1
    92     2    63    1
    93     3    64    1
    94     4    65    1
    95     5     6    1
    96     7     8    2
    97     9    78    1
    98    15    79    1
    99    18    80    1
   100    18    81    1
   101    19    82    1
   102    19    83    1
   103    20    23    1
   104    21    84    1
   105    21    85    1
   106    22    86    1
   107    22    87    1
   108    27    45    1
   109    28    34    1
   110    32    58    1
   111    33    46    2
   112    36    51    1
   113    36    66    1
   114    37    52    1
   115    37    67    1
   116    38    53    1
   117    38    68    1
   118    42    48    1
   119    42    72    1
   120    43    44    2
   121    60    73    1
   122    61    74    1
   123    39    69    1
   124    39    57    1
   125    40    70    1
   126    40    50    1
   127    41    71    1
   128    41    49    1
