@<TRIPOS>MOLECULE
*****
 123 128 0 0 0
SMALL
GASTEIGER

@<TRIPOS>ATOM
     1 C         2.558688   4.286436   1.319899 C.3        1 UNL1     0.0009
     2 C         2.428406   6.118036   1.064346 C.2        1 UNL1     -0.0787
     3 C         2.955652   7.350647   0.517787 C.2        1 UNL1     -0.0649
     4 C         2.233993   8.882171   0.519174 C.2        1 UNL1     -0.0542
     5 C         2.223019   10.161027   -0.090321 C.2        1 UNL1     0.0115
     6 C         2.982429   11.088793   -1.078183 C.3        1 UNL1     -0.0348
     7 C         0.94239   11.10745   0.112806 C.2        1 UNL1     0.2441
     8 O         0.927424   12.048018   0.894876 O.2        1 UNL1     -0.2702
     9 N         -0.06739   10.947164   -0.851976 N.am        1 UNL1     -0.2772
     10 C         -0.94287   9.956443   -0.470754 C.2        1 UNL1     0.1049
     11 C         -0.575332   8.717864   -0.744724 C.2        1 UNL1     0.0801
     12 C         -2.320087   9.161581   1.460257 C.ar        1 UNL1     0.0753
     13 C         -1.729509   7.874771   1.250623 C.ar        1 UNL1     0.0305
     14 C         -0.937466   7.581456   0.058279 C.2        1 UNL1     0.0924
     15 N         0.421036   8.265023   -1.524925 N.pl3        1 UNL1     -0.3170
     16 C         0.286444   6.835947   -1.624324 C.3        1 UNL1     0.1275
     17 N         -0.404357   6.431588   -0.344866 N.2        1 UNL1     -0.2557
     18 C         -0.704949   6.552277   -2.748768 C.3        1 UNL1     0.0016
     19 C         -0.206903   7.225705   -4.017639 C.3        1 UNL1     0.0026
     20 N         1.113304   6.701091   -4.33836 N.3        1 UNL1     -0.3018
     21 C         2.121615   6.871827   -3.290254 C.3        1 UNL1     0.0026
     22 C         1.602765   6.183869   -2.02637 C.3        1 UNL1     0.0016
     23 C         1.548386   7.048525   -5.676507 C.3        1 UNL1     0.0012
     24 C         0.72645   6.283508   -6.725757 C.3        1 UNL1     -0.0339
     25 C         -0.178729   7.230435   -7.530764 C.3        1 UNL1     -0.0615
     26 C         1.649939   5.488159   -7.632051 C.3        1 UNL1     -0.0615
     27 C         -3.172148   9.397991   2.536463 C.ar        1 UNL1     0.1347
     28 C         -3.537886   8.419127   3.443166 C.ar        1 UNL1     0.0342
     29 C         -2.90589   7.173108   3.245226 C.ar        1 UNL1     0.1435
     30 C         -2.022099   6.931676   2.192683 C.ar        1 UNL1     0.0774
     31 O         -3.240939   6.088674   3.977859 O.3        1 UNL1     -0.4436
     32 C         -2.774655   4.971522   3.206222 C.3        1 UNL1     0.3143
     33 C         -1.678822   5.530854   2.321626 C.2        1 UNL1     0.2504
     34 C         -4.633953   8.530039   4.466121 C.3        1 UNL1     -0.0327
     35 O         -2.150591   4.05659   4.115449 O.2        1 UNL1     -0.4528
     36 C         -2.64854   0.602753   2.621747 C.3        1 UNL1     0.0854
     37 C         -2.217849   0.058141   1.205616 C.3        1 UNL1     0.0236
     38 C         -1.31219   -1.264935   1.237164 C.3        1 UNL1     0.1131
     39 C         -0.025366   -1.31383   2.155838 C.3        1 UNL1     0.0200
     40 C         1.013275   -0.010426   2.225128 C.3        1 UNL1     0.0661
     41 C         1.671788   0.807311   0.892733 C.3        1 UNL1     0.0091
     42 C         2.129041   2.571922   0.68665 C.3        1 UNL1     0.0661
     43 C         -2.066195   10.211953   0.443144 C.2        1 UNL1     0.2131
     44 O         -2.786003   11.180785   0.281969 O.2        1 UNL1     -0.2851
     45 O         -3.668523   10.690305   2.6945 O.3        1 UNL1     -0.5056
     46 O         -0.724922   4.954787   1.848261 O.2        1 UNL1     -0.2836
     47 C         3.640344   3.966351   2.386457 C.3        1 UNL1     -0.0566
     48 O         3.457093   2.276865   0.09645 O.3        1 UNL1     -0.3909
     49 C         0.916688   0.398851   -0.352449 C.3        1 UNL1     -0.0577
     50 O         0.585991   0.919614   3.199898 O.3        1 UNL1     -0.3910
     51 O         -2.049625   -0.026546   3.732023 O.3        1 UNL1     -0.3753
     52 C         -1.95905   1.218574   0.190054 C.3        1 UNL1     -0.0564
     53 O         -1.211056   -1.955317   -0.091546 O.3        1 UNL1     -0.4608
     54 C         -0.090963   -2.572771   -0.583553 C.2        1 UNL1     0.3042
     55 O         0.648302   -2.173189   -1.482253 O.2        1 UNL1     -0.2512
     56 C         0.25483   -3.848738   0.129924 C.3        1 UNL1     0.0332
     57 C         -0.443392   -2.007842   3.534887 C.3        1 UNL1     -0.0567
     58 C         -3.959042   4.53075   2.314886 C.3        1 UNL1     0.0210
     59 C         -2.919274   -0.872958   4.482465 C.3        1 UNL1     0.0372
     60 C         -2.472056   2.068274   2.812174 C.2        1 UNL1     -0.0208
     61 C         -1.964507   2.751648   3.838886 C.2        1 UNL1     0.0882
     62 H         1.597205   4.310899   1.846837 H        1 UNL1     0.0365
     63 H         1.537387   6.343027   1.654206 H        1 UNL1     0.0576
     64 H         3.843603   7.361138   -0.118248 H        1 UNL1     0.0615
     65 H         1.41568   8.784016   1.237654 H        1 UNL1     0.0622
     66 H         -3.731443   0.420913   2.669742 H        1 UNL1     0.0645
     67 H         -3.15583   -0.328275   0.770376 H        1 UNL1     0.0362
     68 H         -2.025835   -1.965419   1.697115 H        1 UNL1     0.0741
     69 H         0.618399   -2.11194   1.810883 H        1 UNL1     0.0359
     70 H         1.899416   -0.496514   2.676276 H        1 UNL1     0.0600
     71 H         2.617148   0.243677   0.767954 H        1 UNL1     0.0348
     72 H         2.077832   2.396573   1.77106 H        1 UNL1     0.0602
     73 H         -2.945841   2.583733   2.014002 H        1 UNL1     0.0628
     74 H         -1.412895   2.303091   4.665782 H        1 UNL1     0.1022
     75 H         4.074856   11.097438   -0.846745 H        1 UNL1     0.0279
     76 H         2.967275   10.797733   -2.126096 H        1 UNL1     0.0279
     77 H         2.724869   12.15014   -0.948161 H        1 UNL1     0.0279
     78 H         0.347443   10.665218   -1.737694 H        1 UNL1     0.1553
     79 H         0.872449   8.818931   -2.229443 H        1 UNL1     0.1484
     80 H         -0.795547   5.467258   -2.880266 H        1 UNL1     0.0317
     81 H         -1.703735   6.921399   -2.492202 H        1 UNL1     0.0317
     82 H         -0.183568   8.320636   -3.915201 H        1 UNL1     0.0428
     83 H         -0.929351   7.012219   -4.806019 H        1 UNL1     0.0428
     84 H         3.080916   6.399355   -3.523328 H        1 UNL1     0.0428
     85 H         2.375715   7.929619   -3.135893 H        1 UNL1     0.0428
     86 H         2.416799   6.212791   -1.326013 H        1 UNL1     0.0317
     87 H         1.466164   5.111602   -2.212594 H        1 UNL1     0.0317
     88 H         1.384189   8.124448   -5.82046 H        1 UNL1     0.0429
     89 H         2.623115   6.867034   -5.806095 H        1 UNL1     0.0429
     90 H         0.095167   5.544382   -6.218422 H        1 UNL1     0.0308
     91 H         0.214169   8.251578   -7.53104 H        1 UNL1     0.0233
     92 H         -0.279363   6.88461   -8.562213 H        1 UNL1     0.0233
     93 H         -1.196227   7.281184   -7.124613 H        1 UNL1     0.0233
     94 H         1.072021   4.995061   -8.421165 H        1 UNL1     0.0233
     95 H         2.371159   6.156892   -8.110172 H        1 UNL1     0.0233
     96 H         2.195187   4.722422   -7.073196 H        1 UNL1     0.0233
     97 H         -5.389938   7.76103   4.338287 H        1 UNL1     0.0280
     98 H         -4.257127   8.413659   5.490676 H        1 UNL1     0.0280
     99 H         -5.123299   9.513798   4.377496 H        1 UNL1     0.0280
     100 H         -3.016801   11.367891   2.65258 H        1 UNL1     0.2922
     101 H         3.160641   3.690577   3.325335 H        1 UNL1     0.0236
     102 H         4.364084   4.770084   2.517591 H        1 UNL1     0.0236
     103 H         4.244904   3.085838   2.111872 H        1 UNL1     0.0236
     104 H         3.823507   1.502657   0.566891 H        1 UNL1     0.2098
     105 H         0.685092   1.219542   -1.02672 H        1 UNL1     0.0234
     106 H         1.361977   -0.429052   -0.90401 H        1 UNL1     0.0234
     107 H         0.0   -0.0   0.0 H        1 UNL1     0.0234
     108 H         1.07874   1.748568   3.045617 H        1 UNL1     0.2098
     109 H         -2.855151   1.83228   0.022484 H        1 UNL1     0.0234
     110 H         -1.121774   1.863529   0.47771 H        1 UNL1     0.0234
     111 H         -1.672358   0.835086   -0.798223 H        1 UNL1     0.0234
     112 H         1.166709   -4.278016   -0.296155 H        1 UNL1     0.0342
     113 H         0.356763   -3.702575   1.204209 H        1 UNL1     0.0342
     114 H         -0.562361   -4.564965   -0.032507 H        1 UNL1     0.0342
     115 H         0.381694   -2.592626   3.964364 H        1 UNL1     0.0234
     116 H         -0.781889   -1.306497   4.300121 H        1 UNL1     0.0234
     117 H         -1.217937   -2.785398   3.419008 H        1 UNL1     0.0234
     118 H         -4.370934   3.554625   2.625579 H        1 UNL1     0.0309
     119 H         -4.768597   5.266747   2.281251 H        1 UNL1     0.0309
     120 H         -3.661337   4.359681   1.274592 H        1 UNL1     0.0309
     121 H         -2.956736   -1.837871   3.977592 H        1 UNL1     0.0524
     122 H         -2.550884   -1.048412   5.506936 H        1 UNL1     0.0524
     123 H         -3.91355   -0.438493   4.534887 H        1 UNL1     0.0524
@<TRIPOS>BOND
     1     1     2    1
     2     1    42    1
     3     2     3    2
     4     3     4    1
     5     4     5    2
     6     5     7    1
     7     6    75    1
     8     6    76    1
     9     6    77    1
    10     7     9   am
    11     9    10    1
    12    10    11    2
    13    10    43    1
    14    11    14    1
    15    11    15    1
    16    12    13   ar
    17    12    27   ar
    18    12    43    1
    19    13    14    1
    20    13    30   ar
    21    14    17    2
    22    15    16    1
    23    16    17    1
    24    16    18    1
    25    16    22    1
    26    18    19    1
    27    19    20    1
    28    20    21    1
    29    21    22    1
    30    23    24    1
    31    23    88    1
    32    23    89    1
    33    24    25    1
    34    24    26    1
    35    24    90    1
    36    25    91    1
    37    25    92    1
    38    25    93    1
    39    26    94    1
    40    26    95    1
    41    26    96    1
    42    27    28   ar
    43    28    29   ar
    44    29    30   ar
    45    29    31    1
    46    30    33    1
    47    31    32    1
    48    32    33    1
    49    32    35    1
    50    34    97    1
    51    34    98    1
    52    34    99    1
    53    35    61    1
    54    36    37    1
    55    36    60    1
    56    37    38    1
    57    38    39    1
    58    39    40    1
    59    40    41    1
    60    41    42    1
    61    45   100    1
    62    47   101    1
    63    47   102    1
    64    47   103    1
    65    48   104    1
    66    49   105    1
    67    49   106    1
    68    49   107    1
    69    50   108    1
    70    51    59    1
    71    52   109    1
    72    52   110    1
    73    52   111    1
    74    53    54    1
    75    54    55    2
    76    54    56    1
    77    56   112    1
    78    56   113    1
    79    56   114    1
    80    57   115    1
    81    57   116    1
    82    57   117    1
    83    58   118    1
    84    58   119    1
    85    58   120    1
    86    59   121    1
    87    59   122    1
    88    59   123    1
    89    60    61    2
    90     1    47    1
    91     1    62    1
    92     2    63    1
    93     3    64    1
    94     4    65    1
    95     5     6    1
    96     7     8    2
    97     9    78    1
    98    15    79    1
    99    18    80    1
   100    18    81    1
   101    19    82    1
   102    19    83    1
   103    20    23    1
   104    21    84    1
   105    21    85    1
   106    22    86    1
   107    22    87    1
   108    27    45    1
   109    28    34    1
   110    32    58    1
   111    33    46    2
   112    36    51    1
   113    36    66    1
   114    37    52    1
   115    37    67    1
   116    38    53    1
   117    38    68    1
   118    42    48    1
   119    42    72    1
   120    43    44    2
   121    60    73    1
   122    61    74    1
   123    39    69    1
   124    39    57    1
   125    40    70    1
   126    40    50    1
   127    41    71    1
   128    41    49    1
