@<TRIPOS>MOLECULE
*****
 123 128 0 0 0
SMALL
GASTEIGER

@<TRIPOS>ATOM
     1 C         -0.843691   4.001996   0.563494 C.3        1 UNL1     0.0009
     2 C         -2.496783   4.790108   0.851944 C.2        1 UNL1     -0.0787
     3 C         -3.677903   5.454056   0.34187 C.2        1 UNL1     -0.0649
     4 C         -5.077521   5.88566   1.191073 C.2        1 UNL1     -0.0542
     5 C         -6.44795   6.225371   1.074462 C.2        1 UNL1     0.0115
     6 C         -7.570226   6.591858   0.064756 C.3        1 UNL1     -0.0348
     7 C         -7.385682   6.12825   2.373775 C.2        1 UNL1     0.2441
     8 O         -7.728087   7.10759   3.021987 O.2        1 UNL1     -0.2702
     9 N         -7.999446   4.878106   2.565046 N.am        1 UNL1     -0.2772
     10 C         -7.180353   4.047671   3.294968 C.2        1 UNL1     0.1049
     11 C         -6.243613   3.410549   2.616134 C.2        1 UNL1     0.0801
     12 C         -5.789655   3.95863   5.372313 C.ar        1 UNL1     0.0753
     13 C         -4.730141   3.462554   4.547724 C.ar        1 UNL1     0.0305
     14 C         -4.965421   3.048681   3.166274 C.2        1 UNL1     0.0924
     15 N         -6.081351   3.272473   1.289057 N.pl3        1 UNL1     -0.3170
     16 C         -5.005188   2.342322   1.072386 C.3        1 UNL1     0.1275
     17 N         -4.13449   2.479854   2.297414 N.2        1 UNL1     -0.2557
     18 C         -5.601385   0.939217   1.131945 C.3        1 UNL1     0.0016
     19 C         -6.726793   0.845391   0.113984 C.3        1 UNL1     0.0026
     20 N         -6.186395   1.129375   -1.208269 N.3        1 UNL1     -0.3018
     21 C         -5.536256   2.434138   -1.347118 C.3        1 UNL1     0.0026
     22 C         -4.406312   2.504856   -0.318469 C.3        1 UNL1     0.0016
     23 C         -7.098631   0.776861   -2.277943 C.3        1 UNL1     0.0012
     24 C         -8.093735   1.919289   -2.535591 C.3        1 UNL1     -0.0339
     25 C         -9.470707   1.381128   -2.957951 C.3        1 UNL1     -0.0615
     26 C         -8.193664   2.809425   -1.30903 C.3        1 UNL1     -0.0615
     27 C         -5.58429   4.236864   6.721583 C.ar        1 UNL1     0.1347
     28 C         -4.378488   4.022124   7.364995 C.ar        1 UNL1     0.0342
     29 C         -3.336675   3.579686   6.522357 C.ar        1 UNL1     0.1435
     30 C         -3.5182   3.331189   5.161284 C.ar        1 UNL1     0.0774
     31 O         -2.132881   3.220417   7.019158 O.3        1 UNL1     -0.4436
     32 C         -1.542879   2.411272   5.990541 C.3        1 UNL1     0.3143
     33 C         -2.236693   2.830186   4.710171 C.2        1 UNL1     0.2504
     34 C         -4.153517   4.057376   8.851011 C.3        1 UNL1     -0.0327
     35 O         -0.171185   2.807961   5.870776 O.2        1 UNL1     -0.4528
     36 C         1.712412   -0.287548   4.740299 C.3        1 UNL1     0.0854
     37 C         1.480697   -1.183962   3.463478 C.3        1 UNL1     0.0236
     38 C         2.769274   -1.373506   2.527857 C.3        1 UNL1     0.1131
     39 C         3.588329   -0.106103   2.053401 C.3        1 UNL1     0.0200
     40 C         2.795454   1.261069   1.519896 C.3        1 UNL1     0.0661
     41 C         1.553605   1.302558   0.365037 C.3        1 UNL1     0.0091
     42 C         0.110133   2.423992   0.209541 C.3        1 UNL1     0.0661
     43 C         -7.137784   4.082303   4.764438 C.2        1 UNL1     0.2131
     44 O         -8.168592   4.105914   5.412215 O.2        1 UNL1     -0.2851
     45 O         -6.655646   4.759906   7.442736 O.3        1 UNL1     -0.5056
     46 O         -1.817388   2.782029   3.575395 O.2        1 UNL1     -0.2836
     47 C         0.230713   5.088046   0.287573 C.3        1 UNL1     -0.0566
     48 O         0.3199   2.679219   -1.236132 O.3        1 UNL1     -0.3909
     49 C         1.044857   -0.104615   0.144739 C.3        1 UNL1     -0.0577
     50 O         2.475918   2.110151   2.603723 O.3        1 UNL1     -0.3910
     51 O         2.955858   0.372859   4.811963 O.3        1 UNL1     -0.3753
     52 C         0.045183   -0.99546   2.872956 C.3        1 UNL1     -0.0564
     53 O         2.631174   -2.489935   1.534459 O.3        1 UNL1     -0.4608
     54 C         2.441091   -2.335539   0.186142 C.2        1 UNL1     0.3042
     55 O         1.389789   -2.465847   -0.439655 O.2        1 UNL1     -0.2512
     56 C         3.677726   -1.905014   -0.550129 C.3        1 UNL1     0.0332
     57 C         4.807665   0.08843   3.070039 C.3        1 UNL1     -0.0567
     58 C         -1.927428   0.947978   6.310578 C.3        1 UNL1     0.0210
     59 C         2.882427   1.751554   5.172064 C.3        1 UNL1     0.0372
     60 C         0.665188   0.741402   4.984729 C.2        1 UNL1     -0.0208
     61 C         0.778322   2.027166   5.320518 C.2        1 UNL1     0.0882
     62 H         -0.788067   3.77169   1.634277 H        1 UNL1     0.0365
     63 H         -2.554339   4.749452   1.941671 H        1 UNL1     0.0576
     64 H         -3.837108   5.596036   -0.729392 H        1 UNL1     0.0615
     65 H         -4.787269   5.784616   2.240371 H        1 UNL1     0.0622
     66 H         1.649218   -0.9883   5.584692 H        1 UNL1     0.0645
     67 H         1.353186   -2.202184   3.870324 H        1 UNL1     0.0362
     68 H         3.430949   -1.902072   3.230942 H        1 UNL1     0.0741
     69 H         4.189602   -0.38088   1.197027 H        1 UNL1     0.0359
     70 H         3.628159   1.774667   1.002325 H        1 UNL1     0.0600
     71 H         2.149939   1.464158   -0.554326 H        1 UNL1     0.0348
     72 H         0.829111   2.943489   0.859548 H        1 UNL1     0.0602
     73 H         -0.289332   0.276533   4.978743 H        1 UNL1     0.0628
     74 H         1.71115   2.591443   5.294793 H        1 UNL1     0.1022
     75 H         -7.948759   7.624671   0.257225 H        1 UNL1     0.0279
     76 H         -7.28337   6.639028   -0.983365 H        1 UNL1     0.0279
     77 H         -8.483314   5.995911   0.209041 H        1 UNL1     0.0279
     78 H         -8.160184   4.434419   1.663169 H        1 UNL1     0.1553
     79 H         -6.814022   3.421729   0.619842 H        1 UNL1     0.1484
     80 H         -4.812155   0.206328   0.925167 H        1 UNL1     0.0317
     81 H         -5.980135   0.717272   2.135409 H        1 UNL1     0.0317
     82 H         -7.554525   1.527416   0.358145 H        1 UNL1     0.0428
     83 H         -7.138941   -0.162339   0.17451 H        1 UNL1     0.0428
     84 H         -5.069549   2.589838   -2.324745 H        1 UNL1     0.0428
     85 H         -6.255255   3.260445   -1.26008 H        1 UNL1     0.0428
     86 H         -3.872116   3.410878   -0.536982 H        1 UNL1     0.0317
     87 H         -3.667155   1.719716   -0.519216 H        1 UNL1     0.0317
     88 H         -6.509237   0.614458   -3.189828 H        1 UNL1     0.0429
     89 H         -7.622336   -0.163241   -2.061808 H        1 UNL1     0.0429
     90 H         -7.707193   2.558071   -3.338559 H        1 UNL1     0.0308
     91 H         -9.791377   0.558325   -2.311988 H        1 UNL1     0.0233
     92 H         -10.221358   2.174358   -2.927657 H        1 UNL1     0.0233
     93 H         -9.472065   0.997924   -3.985564 H        1 UNL1     0.0233
     94 H         -9.138228   3.363951   -1.32072 H        1 UNL1     0.0233
     95 H         -8.172203   2.199196   -0.401769 H        1 UNL1     0.0233
     96 H         -7.371007   3.528927   -1.270038 H        1 UNL1     0.0233
     97 H         -4.947388   4.585328   9.370882 H        1 UNL1     0.0280
     98 H         -4.124654   3.051176   9.289173 H        1 UNL1     0.0280
     99 H         -3.200187   4.566484   9.06796 H        1 UNL1     0.0280
     100 H         -6.454265   5.535927   7.935543 H        1 UNL1     0.2922
     101 H         -0.131812   5.778922   -0.473297 H        1 UNL1     0.0236
     102 H         1.204689   4.672229   0.031737 H        1 UNL1     0.0236
     103 H         0.418227   5.71926   1.17222 H        1 UNL1     0.0236
     104 H         0.78628   3.533856   -1.320135 H        1 UNL1     0.2098
     105 H         1.454584   -0.598035   -0.733027 H        1 UNL1     0.0234
     106 H         1.119721   -0.757271   1.01443 H        1 UNL1     0.0234
     107 H         -0.0   0.0   0.0 H        1 UNL1     0.0234
     108 H         3.276993   2.628397   2.812212 H        1 UNL1     0.2098
     109 H         -0.189686   -1.744092   2.103477 H        1 UNL1     0.0234
     110 H         -0.738676   -0.998015   3.638007 H        1 UNL1     0.0234
     111 H         -0.065444   -0.019539   2.381747 H        1 UNL1     0.0234
     112 H         4.537294   -2.488811   -0.207097 H        1 UNL1     0.0342
     113 H         3.559097   -1.981816   -1.629885 H        1 UNL1     0.0342
     114 H         3.86988   -0.850096   -0.31057 H        1 UNL1     0.0342
     115 H         5.145949   -0.868849   3.490002 H        1 UNL1     0.0234
     116 H         5.677889   0.580071   2.630667 H        1 UNL1     0.0234
     117 H         4.532729   0.638007   3.986727 H        1 UNL1     0.0234
     118 H         -3.014705   0.82838   6.460684 H        1 UNL1     0.0309
     119 H         -1.59104   0.238687   5.547721 H        1 UNL1     0.0309
     120 H         -1.501813   0.599051   7.257789 H        1 UNL1     0.0309
     121 H         3.762387   2.246652   4.762302 H        1 UNL1     0.0524
     122 H         1.994159   2.248157   4.747327 H        1 UNL1     0.0524
     123 H         2.862259   1.857108   6.253057 H        1 UNL1     0.0524
@<TRIPOS>BOND
     1     1     2    1
     2     1    42    1
     3     2     3    2
     4     3     4    1
     5     4     5    2
     6     5     7    1
     7     6    75    1
     8     6    76    1
     9     6    77    1
    10     7     9   am
    11     9    10    1
    12    10    11    2
    13    10    43    1
    14    11    14    1
    15    11    15    1
    16    12    13   ar
    17    12    27   ar
    18    12    43    1
    19    13    14    1
    20    13    30   ar
    21    14    17    2
    22    15    16    1
    23    16    17    1
    24    16    18    1
    25    16    22    1
    26    18    19    1
    27    19    20    1
    28    20    21    1
    29    21    22    1
    30    23    24    1
    31    23    88    1
    32    23    89    1
    33    24    25    1
    34    24    26    1
    35    24    90    1
    36    25    91    1
    37    25    92    1
    38    25    93    1
    39    26    94    1
    40    26    95    1
    41    26    96    1
    42    27    28   ar
    43    28    29   ar
    44    29    30   ar
    45    29    31    1
    46    30    33    1
    47    31    32    1
    48    32    33    1
    49    32    35    1
    50    34    97    1
    51    34    98    1
    52    34    99    1
    53    35    61    1
    54    36    37    1
    55    36    60    1
    56    37    38    1
    57    38    39    1
    58    39    40    1
    59    40    41    1
    60    41    42    1
    61    45   100    1
    62    47   101    1
    63    47   102    1
    64    47   103    1
    65    48   104    1
    66    49   105    1
    67    49   106    1
    68    49   107    1
    69    50   108    1
    70    51    59    1
    71    52   109    1
    72    52   110    1
    73    52   111    1
    74    53    54    1
    75    54    55    2
    76    54    56    1
    77    56   112    1
    78    56   113    1
    79    56   114    1
    80    57   115    1
    81    57   116    1
    82    57   117    1
    83    58   118    1
    84    58   119    1
    85    58   120    1
    86    59   121    1
    87    59   122    1
    88    59   123    1
    89    60    61    2
    90     1    47    1
    91     1    62    1
    92     2    63    1
    93     3    64    1
    94     4    65    1
    95     5     6    1
    96     7     8    2
    97     9    78    1
    98    15    79    1
    99    18    80    1
   100    18    81    1
   101    19    82    1
   102    19    83    1
   103    20    23    1
   104    21    84    1
   105    21    85    1
   106    22    86    1
   107    22    87    1
   108    27    45    1
   109    28    34    1
   110    32    58    1
   111    33    46    2
   112    36    51    1
   113    36    66    1
   114    37    52    1
   115    37    67    1
   116    38    53    1
   117    38    68    1
   118    42    48    1
   119    42    72    1
   120    43    44    2
   121    60    73    1
   122    61    74    1
   123    39    69    1
   124    39    57    1
   125    40    70    1
   126    40    50    1
   127    41    71    1
   128    41    49    1
