@<TRIPOS>MOLECULE
*****
 123 128 0 0 0
SMALL
GASTEIGER

@<TRIPOS>ATOM
     1 C         4.970808   2.241884   0.526098 C.3        1 UNL1     0.0009
     2 C         6.357973   3.117712   -0.337461 C.2        1 UNL1     -0.0787
     3 C         7.670471   3.095608   -0.948121 C.2        1 UNL1     -0.0649
     4 C         8.456143   4.34881   -1.771872 C.2        1 UNL1     -0.0542
     5 C         9.482183   4.666951   -2.695509 C.2        1 UNL1     0.0115
     6 C         10.701149   4.090876   -3.467248 C.3        1 UNL1     -0.0348
     7 C         9.459852   6.100189   -3.418225 C.2        1 UNL1     0.2441
     8 O         10.183943   7.026775   -3.081096 O.2        1 UNL1     -0.2702
     9 N         8.743601   6.139081   -4.627201 N.am        1 UNL1     -0.2772
     10 C         7.41743   6.419674   -4.390855 C.2        1 UNL1     0.1049
     11 C         6.657537   5.394855   -4.049491 C.2        1 UNL1     0.0801
     12 C         5.911517   7.994871   -3.162721 C.ar        1 UNL1     0.0753
     13 C         5.246339   6.835632   -2.650556 C.ar        1 UNL1     0.0305
     14 C         5.515844   5.50147   -3.181996 C.2        1 UNL1     0.0924
     15 N         6.91428   4.076299   -4.094461 N.pl3        1 UNL1     -0.3170
     16 C         5.695861   3.380292   -3.776212 C.3        1 UNL1     0.1275
     17 N         4.929327   4.341377   -2.900731 N.2        1 UNL1     -0.2557
     18 C         4.895755   3.254979   -5.069204 C.3        1 UNL1     0.0016
     19 C         5.760304   2.562978   -6.110971 C.3        1 UNL1     0.0026
     20 N         6.145328   1.253097   -5.604023 N.3        1 UNL1     -0.3018
     21 C         6.867236   1.267093   -4.330045 C.3        1 UNL1     0.0026
     22 C         5.97866   1.9625   -3.297216 C.3        1 UNL1     0.0016
     23 C         6.713474   0.397355   -6.626549 C.3        1 UNL1     0.0012
     24 C         5.630217   -0.042035   -7.624169 C.3        1 UNL1     -0.0339
     25 C         5.88928   -1.465337   -8.144894 C.3        1 UNL1     -0.0615
     26 C         4.256395   0.079022   -6.987978 C.3        1 UNL1     -0.0615
     27 C         5.562926   9.274314   -2.736542 C.ar        1 UNL1     0.1347
     28 C         4.54244   9.521583   -1.8357 C.ar        1 UNL1     0.0342
     29 C         3.934518   8.362597   -1.308115 C.ar        1 UNL1     0.1435
     30 C         4.297738   7.073085   -1.698565 C.ar        1 UNL1     0.0774
     31 O         2.85211   8.438641   -0.50337 O.3        1 UNL1     -0.4436
     32 C         2.259264   7.132825   -0.568583 C.3        1 UNL1     0.3143
     33 C         3.385221   6.206768   -0.981925 C.2        1 UNL1     0.2504
     34 C         3.947742   10.866801   -1.524536 C.3        1 UNL1     -0.0327
     35 O         1.886787   6.766988   0.765837 O.2        1 UNL1     -0.4528
     36 C         -1.135213   4.496709   0.417355 C.3        1 UNL1     0.0854
     37 C         -1.279244   3.145543   -0.38335 C.3        1 UNL1     0.0236
     38 C         -1.788436   1.896714   0.484344 C.3        1 UNL1     0.1131
     39 C         -1.070846   1.544292   1.849311 C.3        1 UNL1     0.0200
     40 C         0.593385   1.568363   1.959732 C.3        1 UNL1     0.0661
     41 C         1.67115   0.809481   0.891962 C.3        1 UNL1     0.0091
     42 C         3.358273   1.294719   0.359456 C.3        1 UNL1     0.0661
     43 C         6.92391   7.795423   -4.229276 C.2        1 UNL1     0.2131
     44 O         7.265567   8.669691   -5.004946 O.2        1 UNL1     -0.2851
     45 O         6.290425   10.345915   -3.250211 O.3        1 UNL1     -0.5056
     46 O         3.511522   5.024772   -0.752171 O.2        1 UNL1     -0.2836
     47 C         5.345249   1.968075   2.007585 C.3        1 UNL1     -0.0566
     48 O         3.936824   -0.053997   0.57244 O.3        1 UNL1     -0.3909
     49 C         0.916684   0.398556   -0.352793 C.3        1 UNL1     -0.0577
     50 O         1.056224   2.866916   2.271603 O.3        1 UNL1     -0.3910
     51 O         -1.299445   4.405344   1.814535 O.3        1 UNL1     -0.3753
     52 C         -0.176175   2.999853   -1.481968 C.3        1 UNL1     -0.0564
     53 O         -2.249362   0.735595   -0.347326 O.3        1 UNL1     -0.4608
     54 C         -2.055403   -0.586574   -0.043719 C.2        1 UNL1     0.3042
     55 O         -1.225089   -1.351278   -0.533254 O.2        1 UNL1     -0.2512
     56 C         -2.947973   -1.088432   1.055449 C.3        1 UNL1     0.0332
     57 C         -1.905897   2.235105   3.025594 C.3        1 UNL1     -0.0567
     58 C         1.212487   7.183981   -1.705759 C.3        1 UNL1     0.0210
     59 C         -2.514962   4.962174   2.312857 C.3        1 UNL1     0.0372
     60 C         0.135582   5.234813   0.181894 C.2        1 UNL1     -0.0208
     61 C         0.96458   5.825522   1.043619 C.2        1 UNL1     0.0882
     62 H         4.399007   3.177643   0.515644 H        1 UNL1     0.0365
     63 H         5.987205   4.144805   -0.328425 H        1 UNL1     0.0576
     64 H         8.228122   2.164723   -1.072969 H        1 UNL1     0.0615
     65 H         7.868843   5.235593   -1.518541 H        1 UNL1     0.0622
     66 H         -1.93447   5.138836   0.021241 H        1 UNL1     0.0645
     67 H         -2.143821   3.318392   -1.047571 H        1 UNL1     0.0362
     68 H         -2.787273   2.263471   0.766013 H        1 UNL1     0.0741
     69 H         -1.311413   0.523692   2.115603 H        1 UNL1     0.0359
     70 H         0.730728   0.993582   2.895587 H        1 UNL1     0.0600
     71 H         1.794739   -0.16564   1.402671 H        1 UNL1     0.0348
     72 H         3.164333   1.845301   1.291423 H        1 UNL1     0.0602
     73 H         0.277846   5.360898   -0.862669 H        1 UNL1     0.0628
     74 H         0.921987   5.698721   2.125906 H        1 UNL1     0.1022
     75 H         11.362079   3.510523   -2.779211 H        1 UNL1     0.0279
     76 H         10.48242   3.366361   -4.248468 H        1 UNL1     0.0279
     77 H         11.38917   4.872954   -3.820354 H        1 UNL1     0.0279
     78 H         8.788049   5.228809   -5.08053 H        1 UNL1     0.1553
     79 H         7.643309   3.669492   -4.651199 H        1 UNL1     0.1484
     80 H         3.978869   2.687626   -4.868712 H        1 UNL1     0.0317
     81 H         4.582033   4.23959   -5.432208 H        1 UNL1     0.0317
     82 H         6.64514   3.163105   -6.369477 H        1 UNL1     0.0428
     83 H         5.171189   2.485561   -7.025301 H        1 UNL1     0.0428
     84 H         7.074237   0.268757   -3.932192 H        1 UNL1     0.0428
     85 H         7.860555   1.726462   -4.428096 H        1 UNL1     0.0428
     86 H         6.477764   1.836739   -2.354312 H        1 UNL1     0.0317
     87 H         5.045363   1.401115   -3.167214 H        1 UNL1     0.0317
     88 H         7.47531   0.972598   -7.168763 H        1 UNL1     0.0429
     89 H         7.219878   -0.470253   -6.184298 H        1 UNL1     0.0429
     90 H         5.626967   0.646708   -8.477302 H        1 UNL1     0.0308
     91 H         6.140564   -2.148196   -7.327789 H        1 UNL1     0.0233
     92 H         5.014223   -1.84775   -8.675596 H        1 UNL1     0.0233
     93 H         6.720913   -1.503908   -8.85885 H        1 UNL1     0.0233
     94 H         3.541568   -0.568958   -7.506611 H        1 UNL1     0.0233
     95 H         4.299986   -0.236538   -5.941802 H        1 UNL1     0.0233
     96 H         3.885676   1.106954   -7.031466 H        1 UNL1     0.0233
     97 H         2.881332   10.89758   -1.727153 H        1 UNL1     0.0280
     98 H         4.060308   11.134127   -0.465706 H        1 UNL1     0.0280
     99 H         4.438768   11.638583   -2.139631 H        1 UNL1     0.0280
     100 H         7.22469   10.241762   -3.206336 H        1 UNL1     0.2922
     101 H         4.815877   2.666213   2.655678 H        1 UNL1     0.0236
     102 H         6.419821   1.977921   2.186978 H        1 UNL1     0.0236
     103 H         5.013827   0.970461   2.34093 H        1 UNL1     0.0236
     104 H         3.530523   -0.425062   1.380029 H        1 UNL1     0.2098
     105 H         0.685061   1.217973   -1.028602 H        1 UNL1     0.0234
     106 H         1.362485   -0.430161   -0.902717 H        1 UNL1     0.0234
     107 H         0.0   -0.0   0.0 H        1 UNL1     0.0234
     108 H         2.017678   2.881008   2.100794 H        1 UNL1     0.2098
     109 H         -0.22386   3.80479   -2.228637 H        1 UNL1     0.0234
     110 H         0.836942   2.942081   -1.069656 H        1 UNL1     0.0234
     111 H         -0.287786   2.064242   -2.04599 H        1 UNL1     0.0234
     112 H         -2.728493   -2.140336   1.262027 H        1 UNL1     0.0342
     113 H         -2.862744   -0.486759   1.959091 H        1 UNL1     0.0342
     114 H         -3.988617   -1.023259   0.709072 H        1 UNL1     0.0342
     115 H         -1.883608   1.637815   3.947513 H        1 UNL1     0.0234
     116 H         -1.567338   3.241858   3.27833 H        1 UNL1     0.0234
     117 H         -2.990573   2.280347   2.827169 H        1 UNL1     0.0234
     118 H         0.17912   7.129489   -1.320805 H        1 UNL1     0.0309
     119 H         1.311637   8.069575   -2.341444 H        1 UNL1     0.0309
     120 H         1.277989   6.320348   -2.376546 H        1 UNL1     0.0309
     121 H         -2.343338   5.254968   3.348315 H        1 UNL1     0.0524
     122 H         -2.819486   5.865525   1.758548 H        1 UNL1     0.0524
     123 H         -3.314488   4.228773   2.258306 H        1 UNL1     0.0524
@<TRIPOS>BOND
     1     1     2    1
     2     1    42    1
     3     2     3    2
     4     3     4    1
     5     4     5    2
     6     5     7    1
     7     6    75    1
     8     6    76    1
     9     6    77    1
    10     7     9   am
    11     9    10    1
    12    10    11    2
    13    10    43    1
    14    11    14    1
    15    11    15    1
    16    12    13   ar
    17    12    27   ar
    18    12    43    1
    19    13    14    1
    20    13    30   ar
    21    14    17    2
    22    15    16    1
    23    16    17    1
    24    16    18    1
    25    16    22    1
    26    18    19    1
    27    19    20    1
    28    20    21    1
    29    21    22    1
    30    23    24    1
    31    23    88    1
    32    23    89    1
    33    24    25    1
    34    24    26    1
    35    24    90    1
    36    25    91    1
    37    25    92    1
    38    25    93    1
    39    26    94    1
    40    26    95    1
    41    26    96    1
    42    27    28   ar
    43    28    29   ar
    44    29    30   ar
    45    29    31    1
    46    30    33    1
    47    31    32    1
    48    32    33    1
    49    32    35    1
    50    34    97    1
    51    34    98    1
    52    34    99    1
    53    35    61    1
    54    36    37    1
    55    36    60    1
    56    37    38    1
    57    38    39    1
    58    39    40    1
    59    40    41    1
    60    41    42    1
    61    45   100    1
    62    47   101    1
    63    47   102    1
    64    47   103    1
    65    48   104    1
    66    49   105    1
    67    49   106    1
    68    49   107    1
    69    50   108    1
    70    51    59    1
    71    52   109    1
    72    52   110    1
    73    52   111    1
    74    53    54    1
    75    54    55    2
    76    54    56    1
    77    56   112    1
    78    56   113    1
    79    56   114    1
    80    57   115    1
    81    57   116    1
    82    57   117    1
    83    58   118    1
    84    58   119    1
    85    58   120    1
    86    59   121    1
    87    59   122    1
    88    59   123    1
    89    60    61    2
    90     1    47    1
    91     1    62    1
    92     2    63    1
    93     3    64    1
    94     4    65    1
    95     5     6    1
    96     7     8    2
    97     9    78    1
    98    15    79    1
    99    18    80    1
   100    18    81    1
   101    19    82    1
   102    19    83    1
   103    20    23    1
   104    21    84    1
   105    21    85    1
   106    22    86    1
   107    22    87    1
   108    27    45    1
   109    28    34    1
   110    32    58    1
   111    33    46    2
   112    36    51    1
   113    36    66    1
   114    37    52    1
   115    37    67    1
   116    38    53    1
   117    38    68    1
   118    42    48    1
   119    42    72    1
   120    43    44    2
   121    60    73    1
   122    61    74    1
   123    39    69    1
   124    39    57    1
   125    40    70    1
   126    40    50    1
   127    41    71    1
   128    41    49    1
