@<TRIPOS>MOLECULE
*****
 123 128 0 0 0
SMALL
GASTEIGER

@<TRIPOS>ATOM
     1 C         4.63632   0.840027   1.005098 C.3        1 UNL1     0.0009
     2 C         6.092219   1.357373   -0.019474 C.2        1 UNL1     -0.0787
     3 C         7.396329   1.075456   -0.581494 C.2        1 UNL1     -0.0649
     4 C         8.285901   2.018105   -1.670729 C.2        1 UNL1     -0.0542
     5 C         9.333435   2.012704   -2.624523 C.2        1 UNL1     0.0115
     6 C         10.495834   1.164249   -3.209564 C.3        1 UNL1     -0.0348
     7 C         9.433955   3.222514   -3.674877 C.2        1 UNL1     0.2441
     8 O         10.236649   4.138492   -3.560015 O.2        1 UNL1     -0.2702
     9 N         8.720828   3.025506   -4.870197 N.am        1 UNL1     -0.2772
     10 C         7.42464   3.466832   -4.73437 C.2        1 UNL1     0.1049
     11 C         6.579409   2.624759   -4.168047 C.2        1 UNL1     0.0801
     12 C         6.064318   5.416267   -3.95555 C.ar        1 UNL1     0.0753
     13 C         5.302183   4.478038   -3.189074 C.ar        1 UNL1     0.0305
     14 C         5.453432   3.036563   -3.374341 C.2        1 UNL1     0.0924
     15 N         6.720494   1.318289   -3.885629 N.pl3        1 UNL1     -0.3170
     16 C         5.446989   0.827106   -3.430462 C.3        1 UNL1     0.1275
     17 N         4.76902   2.034424   -2.830076 N.2        1 UNL1     -0.2557
     18 C         4.635849   0.458069   -4.668835 C.3        1 UNL1     0.0016
     19 C         5.434437   -0.538262   -5.494166 C.3        1 UNL1     0.0026
     20 N         5.705425   -1.712403   -4.676249 N.3        1 UNL1     -0.3018
     21 C         6.428944   -1.448905   -3.430674 C.3        1 UNL1     0.0026
     22 C         5.606694   -0.449429   -2.615293 C.3        1 UNL1     0.0016
     23 C         6.194551   -2.837051   -5.448626 C.3        1 UNL1     0.0012
     24 C         5.109562   -3.918425   -5.571855 C.3        1 UNL1     -0.0339
     25 C         5.180857   -4.921687   -4.408911 C.3        1 UNL1     -0.0615
     26 C         3.738655   -3.271954   -5.669168 C.3        1 UNL1     -0.0615
     27 C         5.829271   6.78588   -3.860517 C.ar        1 UNL1     0.1347
     28 C         4.836346   7.331414   -3.066449 C.ar        1 UNL1     0.0342
     29 C         4.13131   6.392337   -2.284002 C.ar        1 UNL1     0.1435
     30 C         4.380144   5.020486   -2.341661 C.ar        1 UNL1     0.0774
     31 O         3.061582   6.754249   -1.542579 O.3        1 UNL1     -0.4436
     32 C         2.357352   5.527236   -1.298915 C.3        1 UNL1     0.3143
     33 C         3.397562   4.436155   -1.452922 C.2        1 UNL1     0.2504
     34 C         4.361555   8.75735   -3.103608 C.3        1 UNL1     -0.0327
     35 O         1.957771   5.531458   0.077155 O.2        1 UNL1     -0.4528
     36 C         -1.25092   3.509728   0.235258 C.3        1 UNL1     0.0854
     37 C         -1.513781   2.021138   -0.214771 C.3        1 UNL1     0.0236
     38 C         -2.127432   1.069987   0.921226 C.3        1 UNL1     0.1131
     39 C         -1.439832   1.002127   2.344205 C.3        1 UNL1     0.0200
     40 C         0.220462   0.911129   2.4768 C.3        1 UNL1     0.0661
     41 C         1.225583   -0.174254   1.646567 C.3        1 UNL1     0.0091
     42 C         2.947177   0.021214   1.043815 C.3        1 UNL1     0.0661
     43 C         7.052929   4.877129   -4.92211 C.2        1 UNL1     0.2131
     44 O         7.467359   5.503161   -5.880791 O.2        1 UNL1     -0.2851
     45 O         6.645872   7.633797   -4.605928 O.3        1 UNL1     -0.5056
     46 O         3.42124   3.339785   -0.93983 O.2        1 UNL1     -0.2836
     47 C         4.989188   0.905692   2.515447 C.3        1 UNL1     -0.0566
     48 O         3.406864   -1.278679   1.589784 O.3        1 UNL1     -0.3909
     49 C         0.43521   -0.811274   0.525402 C.3        1 UNL1     -0.0577
     50 O         0.795152   2.202419   2.471636 O.3        1 UNL1     -0.3910
     51 O         -1.41904   3.776744   1.609256 O.3        1 UNL1     -0.3753
     52 C         -0.430244   1.518401   -1.223807 C.3        1 UNL1     -0.0564
     53 O         -2.689551   -0.215696   0.3889 O.3        1 UNL1     -0.4608
     54 C         -2.143745   -0.964425   -0.620769 C.2        1 UNL1     0.3042
     55 O         -2.351888   -2.151944   -0.866357 O.2        1 UNL1     -0.2512
     56 C         -1.240917   -0.180553   -1.530251 C.3        1 UNL1     0.0332
     57 C         -2.208806   2.02767   3.300821 C.3        1 UNL1     -0.0567
     58 C         1.316191   5.387664   -2.43383 C.3        1 UNL1     0.0210
     59 C         -0.370133   4.539279   2.204403 C.3        1 UNL1     0.0372
     60 C         0.078624   4.057357   -0.148897 C.2        1 UNL1     -0.0208
     61 C         0.957928   4.768144   0.558458 C.2        1 UNL1     0.0882
     62 H         4.14797   1.789919   0.756239 H        1 UNL1     0.0365
     63 H         5.812126   2.383193   -0.267891 H        1 UNL1     0.0576
     64 H         7.870673   0.098419   -0.465291 H        1 UNL1     0.0615
     65 H         7.778503   2.986446   -1.652161 H        1 UNL1     0.0622
     66 H         -1.992327   4.101061   -0.320338 H        1 UNL1     0.0645
     67 H         -2.361696   2.099201   -0.917271 H        1 UNL1     0.0362
     68 H         -3.089927   1.577839   1.086185 H        1 UNL1     0.0741
     69 H         -1.767519   0.10172   2.846497 H        1 UNL1     0.0359
     70 H         0.309637   0.572882   3.526893 H        1 UNL1     0.0600
     71 H         1.265224   -1.001919   2.381656 H        1 UNL1     0.0348
     72 H         2.804101   0.797205   1.809767 H        1 UNL1     0.0602
     73 H         0.228741   3.911889   -1.189835 H        1 UNL1     0.0628
     74 H         0.907135   4.913678   1.638031 H        1 UNL1     0.1022
     75 H         11.227807   0.897604   -2.409469 H        1 UNL1     0.0279
     76 H         10.229235   0.191542   -3.616794 H        1 UNL1     0.0279
     77 H         11.131054   1.734241   -3.903326 H        1 UNL1     0.0279
     78 H         8.684897   2.031681   -5.087219 H        1 UNL1     0.1553
     79 H         7.410048   0.727444   -4.312655 H        1 UNL1     0.1484
     80 H         3.673626   0.036806   -4.353509 H        1 UNL1     0.0317
     81 H         4.407982   1.347121   -5.266593 H        1 UNL1     0.0317
     82 H         6.367437   -0.096793   -5.874336 H        1 UNL1     0.0428
     83 H         4.83858   -0.786428   -6.373039 H        1 UNL1     0.0428
     84 H         6.549387   -2.333645   -2.797791 H        1 UNL1     0.0428
     85 H         7.45818   -1.113412   -3.618918 H        1 UNL1     0.0428
     86 H         6.095296   -0.38291   -1.660918 H        1 UNL1     0.0317
     87 H         4.628468   -0.880755   -2.370084 H        1 UNL1     0.0317
     88 H         6.445072   -2.477039   -6.455068 H        1 UNL1     0.0429
     89 H         7.115642   -3.247829   -5.015465 H        1 UNL1     0.0429
     90 H         5.25106   -4.463655   -6.512555 H        1 UNL1     0.0308
     91 H         6.043665   -5.586881   -4.50982 H        1 UNL1     0.0233
     92 H         5.240796   -4.399329   -3.451227 H        1 UNL1     0.0233
     93 H         4.291252   -5.560725   -4.353518 H        1 UNL1     0.0233
     94 H         3.420447   -2.911249   -4.685058 H        1 UNL1     0.0233
     95 H         3.777313   -2.414094   -6.346326 H        1 UNL1     0.0233
     96 H         2.989453   -3.978581   -6.037057 H        1 UNL1     0.0233
     97 H         5.082145   9.414411   -3.581364 H        1 UNL1     0.0280
     98 H         3.429648   8.868513   -3.673212 H        1 UNL1     0.0280
     99 H         4.194165   9.117494   -2.075322 H        1 UNL1     0.0280
     100 H         6.996586   8.362497   -4.124662 H        1 UNL1     0.2922
     101 H         5.974237   1.353887   2.643724 H        1 UNL1     0.0236
     102 H         4.910208   -0.058562   3.016406 H        1 UNL1     0.0236
     103 H         4.305585   1.568348   3.072015 H        1 UNL1     0.0236
     104 H         3.582094   -1.871189   0.832687 H        1 UNL1     0.2098
     105 H         1.035255   -1.380831   -0.179837 H        1 UNL1     0.0234
     106 H         -0.424177   -1.397721   0.850148 H        1 UNL1     0.0234
     107 H         -0.0   0.0   0.0 H        1 UNL1     0.0234
     108 H         0.542379   2.629085   1.63031 H        1 UNL1     0.2098
     109 H         0.330015   0.890157   -0.73901 H        1 UNL1     0.0234
     110 H         -0.854879   0.984295   -2.080638 H        1 UNL1     0.0234
     111 H         0.119586   2.354063   -1.676909 H        1 UNL1     0.0234
     112 H         -0.826924   -0.838081   -2.300713 H        1 UNL1     0.0342
     113 H         -1.74981   0.6724   -1.976729 H        1 UNL1     0.0342
     114 H         -0.404125   0.206533   -0.932665 H        1 UNL1     0.0342
     115 H         -2.457815   2.962961   2.780808 H        1 UNL1     0.0234
     116 H         -3.133676   1.631294   3.724557 H        1 UNL1     0.0234
     117 H         -1.587702   2.404578   4.13155 H        1 UNL1     0.0234
     118 H         1.774403   5.496143   -3.432469 H        1 UNL1     0.0309
     119 H         0.761799   4.444627   -2.39468 H        1 UNL1     0.0309
     120 H         0.563232   6.183122   -2.413679 H        1 UNL1     0.0309
     121 H         -0.47656   4.458538   3.285842 H        1 UNL1     0.0524
     122 H         0.628853   4.154704   1.939512 H        1 UNL1     0.0524
     123 H         -0.440498   5.578944   1.897419 H        1 UNL1     0.0524
@<TRIPOS>BOND
     1     1     2    1
     2     1    42    1
     3     2     3    2
     4     3     4    1
     5     4     5    2
     6     5     7    1
     7     6    75    1
     8     6    76    1
     9     6    77    1
    10     7     9   am
    11     9    10    1
    12    10    11    2
    13    10    43    1
    14    11    14    1
    15    11    15    1
    16    12    13   ar
    17    12    27   ar
    18    12    43    1
    19    13    14    1
    20    13    30   ar
    21    14    17    2
    22    15    16    1
    23    16    17    1
    24    16    18    1
    25    16    22    1
    26    18    19    1
    27    19    20    1
    28    20    21    1
    29    21    22    1
    30    23    24    1
    31    23    88    1
    32    23    89    1
    33    24    25    1
    34    24    26    1
    35    24    90    1
    36    25    91    1
    37    25    92    1
    38    25    93    1
    39    26    94    1
    40    26    95    1
    41    26    96    1
    42    27    28   ar
    43    28    29   ar
    44    29    30   ar
    45    29    31    1
    46    30    33    1
    47    31    32    1
    48    32    33    1
    49    32    35    1
    50    34    97    1
    51    34    98    1
    52    34    99    1
    53    35    61    1
    54    36    37    1
    55    36    60    1
    56    37    38    1
    57    38    39    1
    58    39    40    1
    59    40    41    1
    60    41    42    1
    61    45   100    1
    62    47   101    1
    63    47   102    1
    64    47   103    1
    65    48   104    1
    66    49   105    1
    67    49   106    1
    68    49   107    1
    69    50   108    1
    70    51    59    1
    71    52   109    1
    72    52   110    1
    73    52   111    1
    74    53    54    1
    75    54    55    2
    76    54    56    1
    77    56   112    1
    78    56   113    1
    79    56   114    1
    80    57   115    1
    81    57   116    1
    82    57   117    1
    83    58   118    1
    84    58   119    1
    85    58   120    1
    86    59   121    1
    87    59   122    1
    88    59   123    1
    89    60    61    2
    90     1    47    1
    91     1    62    1
    92     2    63    1
    93     3    64    1
    94     4    65    1
    95     5     6    1
    96     7     8    2
    97     9    78    1
    98    15    79    1
    99    18    80    1
   100    18    81    1
   101    19    82    1
   102    19    83    1
   103    20    23    1
   104    21    84    1
   105    21    85    1
   106    22    86    1
   107    22    87    1
   108    27    45    1
   109    28    34    1
   110    32    58    1
   111    33    46    2
   112    36    51    1
   113    36    66    1
   114    37    52    1
   115    37    67    1
   116    38    53    1
   117    38    68    1
   118    42    48    1
   119    42    72    1
   120    43    44    2
   121    60    73    1
   122    61    74    1
   123    39    69    1
   124    39    57    1
   125    40    70    1
   126    40    50    1
   127    41    71    1
   128    41    49    1
