@<TRIPOS>MOLECULE
*****
 123 128 0 0 0
SMALL
GASTEIGER

@<TRIPOS>ATOM
     1 C         5.165687   1.753235   0.491039 C.3        1 UNL1     0.0009
     2 C         6.602872   2.557247   -0.36049 C.2        1 UNL1     -0.0787
     3 C         7.885531   2.457507   -1.02448 C.2        1 UNL1     -0.0649
     4 C         8.763143   3.690549   -1.783272 C.2        1 UNL1     -0.0542
     5 C         9.784039   3.980576   -2.721745 C.2        1 UNL1     0.0115
     6 C         10.91352   3.352824   -3.584023 C.3        1 UNL1     -0.0348
     7 C         9.879245   5.461828   -3.333151 C.2        1 UNL1     0.2441
     8 O         10.702273   6.285192   -2.957352 O.2        1 UNL1     -0.2702
     9 N         9.130195   5.664437   -4.505339 N.am        1 UNL1     -0.2772
     10 C         7.846929   6.051481   -4.194294 C.2        1 UNL1     0.1049
     11 C         7.001346   5.080601   -3.900007 C.2        1 UNL1     0.0801
     12 C         6.54613   7.662182   -2.790409 C.ar        1 UNL1     0.0753
     13 C         5.787188   6.535374   -2.339944 C.ar        1 UNL1     0.0305
     14 C         5.905528   5.227565   -2.98079 C.2        1 UNL1     0.0924
     15 N         7.124855   3.75116   -4.054474 N.pl3        1 UNL1     -0.3170
     16 C         5.854974   3.152368   -3.739665 C.3        1 UNL1     0.1275
     17 N         5.216988   4.11056   -2.763672 N.2        1 UNL1     -0.2557
     18 C         5.003479   3.20671   -5.00446 C.3        1 UNL1     0.0016
     19 C         5.759962   2.51922   -6.129928 C.3        1 UNL1     0.0026
     20 N         6.030422   1.142575   -5.739123 N.3        1 UNL1     -0.3018
     21 C         6.792507   0.986779   -4.498429 C.3        1 UNL1     0.0026
     22 C         6.012164   1.680659   -3.380623 C.3        1 UNL1     0.0016
     23 C         6.476584   0.319536   -6.845554 C.3        1 UNL1     0.0012
     24 C         5.322349   0.066122   -7.82804 C.3        1 UNL1     -0.0339
     25 C         5.34864   1.065375   -8.996312 C.3        1 UNL1     -0.0615
     26 C         5.363058   -1.370233   -8.319984 C.3        1 UNL1     -0.0615
     27 C         6.340198   8.93158   -2.255302 C.ar        1 UNL1     0.1347
     28 C         5.379945   9.203851   -1.297266 C.ar        1 UNL1     0.0342
     29 C         4.678489   8.070583   -0.83377 C.ar        1 UNL1     0.1435
     30 C         4.899174   6.786975   -1.334638 C.ar        1 UNL1     0.0774
     31 O         3.636505   8.186469   0.018195 O.3        1 UNL1     -0.4436
     32 C         2.915645   6.952786   -0.120585 C.3        1 UNL1     0.3143
     33 C         3.930056   5.958436   -0.64827 C.2        1 UNL1     0.2504
     34 C         4.931892   10.571194   -0.861697 C.3        1 UNL1     -0.0327
     35 O         2.553807   6.520343   1.19673 O.2        1 UNL1     -0.4528
     36 C         -0.687767   4.585074   0.803005 C.3        1 UNL1     0.0854
     37 C         -0.991418   3.321297   -0.090409 C.3        1 UNL1     0.0236
     38 C         -1.592154   2.062601   0.701137 C.3        1 UNL1     0.1131
     39 C         -0.867528   1.536465   2.005119 C.3        1 UNL1     0.0200
     40 C         0.793696   1.391958   2.048583 C.3        1 UNL1     0.0661
     41 C         1.754748   0.619695   0.883422 C.3        1 UNL1     0.0091
     42 C         3.462753   0.981264   0.320047 C.3        1 UNL1     0.0661
     43 C         7.497501   7.451201   -3.909622 C.2        1 UNL1     0.2131
     44 O         7.897683   8.347057   -4.630756 O.2        1 UNL1     -0.2851
     45 O         7.152408   9.965568   -2.716413 O.3        1 UNL1     -0.5056
     46 O         3.946548   4.75536   -0.5134 O.2        1 UNL1     -0.2836
     47 C         5.560717   1.328846   1.931117 C.3        1 UNL1     -0.0566
     48 O         3.911984   -0.429314   0.4071 O.3        1 UNL1     -0.3909
     49 C         0.922032   0.382455   -0.356657 C.3        1 UNL1     -0.0577
     50 O         1.392816   2.611468   2.437908 O.3        1 UNL1     -0.3910
     51 O         -0.813263   4.400049   2.194927 O.3        1 UNL1     -0.3753
     52 C         0.054372   3.157484   -1.24125 C.3        1 UNL1     -0.0564
     53 O         -2.193225   1.020249   -0.195825 O.3        1 UNL1     -0.4608
     54 C         -2.414804   -0.28882   0.143545 C.2        1 UNL1     0.3042
     55 O         -1.841123   -1.282772   -0.300064 O.2        1 UNL1     -0.2512
     56 C         -3.445494   -0.46427   1.222251 C.3        1 UNL1     0.0332
     57 C         -1.59028   2.209343   3.263307 C.3        1 UNL1     -0.0567
     58 C         1.841494   7.19362   -1.206738 C.3        1 UNL1     0.0210
     59 C         -1.158806   5.574994   2.927028 C.3        1 UNL1     0.0372
     60 C         0.641142   5.214087   0.571692 C.2        1 UNL1     -0.0208
     61 C         1.552903   5.652758   1.440602 C.2        1 UNL1     0.0882
     62 H         4.689147   2.737442   0.574452 H        1 UNL1     0.0365
     63 H         6.335948   3.611254   -0.259051 H        1 UNL1     0.0576
     64 H         8.34394   1.490159   -1.24175 H        1 UNL1     0.0615
     65 H         8.275197   4.606855   -1.440089 H        1 UNL1     0.0622
     66 H         -1.43248   5.330144   0.489446 H        1 UNL1     0.0645
     67 H         -1.856471   3.628121   -0.703682 H        1 UNL1     0.0362
     68 H         -2.539837   2.500161   1.050368 H        1 UNL1     0.0741
     69 H         -1.198722   0.525859   2.203595 H        1 UNL1     0.0359
     70 H         0.904873   0.734683   2.93215 H        1 UNL1     0.0600
     71 H         1.798415   -0.399991   1.313876 H        1 UNL1     0.0348
     72 H         3.355554   1.472737   1.297942 H        1 UNL1     0.0602
     73 H         0.76005   5.407877   -0.465397 H        1 UNL1     0.0628
     74 H         1.534316   5.44572   2.511129 H        1 UNL1     0.1022
     75 H         10.958425   2.248096   -3.427203 H        1 UNL1     0.0279
     76 H         10.801006   3.431888   -4.662984 H        1 UNL1     0.0279
     77 H         11.91808   3.659175   -3.257359 H        1 UNL1     0.0279
     78 H         9.069223   4.792677   -5.027253 H        1 UNL1     0.1553
     79 H         7.791017   3.321431   -4.669691 H        1 UNL1     0.1484
     80 H         4.04225   2.715924   -4.809691 H        1 UNL1     0.0317
     81 H         4.77661   4.242415   -5.279229 H        1 UNL1     0.0317
     82 H         6.690609   3.050175   -6.378718 H        1 UNL1     0.0428
     83 H         5.135741   2.570997   -7.022518 H        1 UNL1     0.0428
     84 H         6.913049   -0.055051   -4.185586 H        1 UNL1     0.0428
     85 H         7.822515   1.355009   -4.60239 H        1 UNL1     0.0428
     86 H         6.527742   1.433661   -2.47114 H        1 UNL1     0.0317
     87 H         5.032839   1.202925   -3.254962 H        1 UNL1     0.0317
     88 H         7.272926   0.859963   -7.373828 H        1 UNL1     0.0429
     89 H         6.909304   -0.624805   -6.490948 H        1 UNL1     0.0429
     90 H         4.368859   0.174127   -7.297564 H        1 UNL1     0.0308
     91 H         6.29935   1.021317   -9.536046 H        1 UNL1     0.0233
     92 H         4.531062   0.866527   -9.693187 H        1 UNL1     0.0233
     93 H         5.220289   2.102047   -8.662139 H        1 UNL1     0.0233
     94 H         4.667747   -1.503026   -9.155893 H        1 UNL1     0.0233
     95 H         6.367943   -1.615183   -8.675184 H        1 UNL1     0.0233
     96 H         5.088211   -2.071524   -7.527129 H        1 UNL1     0.0233
     97 H         4.137784   10.523507   -0.122543 H        1 UNL1     0.0280
     98 H         5.743835   11.143266   -0.394001 H        1 UNL1     0.0280
     99 H         4.558849   11.132563   -1.733935 H        1 UNL1     0.0280
     100 H         6.685325   10.714826   -3.042095 H        1 UNL1     0.2922
     101 H         4.697593   0.896465   2.436804 H        1 UNL1     0.0236
     102 H         6.010445   2.1364   2.507819 H        1 UNL1     0.0236
     103 H         6.317396   0.526584   1.933562 H        1 UNL1     0.0236
     104 H         4.330645   -0.552102   1.281523 H        1 UNL1     0.2098
     105 H         0.709522   1.279215   -0.933262 H        1 UNL1     0.0234
     106 H         1.292547   -0.407598   -1.009698 H        1 UNL1     0.0234
     107 H         0.0   -0.0   0.0 H        1 UNL1     0.0234
     108 H         1.19466   3.267246   1.741879 H        1 UNL1     0.2098
     109 H         1.078858   3.045856   -0.859572 H        1 UNL1     0.0234
     110 H         -0.176898   2.327949   -1.918103 H        1 UNL1     0.0234
     111 H         0.075793   4.03808   -1.897024 H        1 UNL1     0.0234
     112 H         -3.567923   -1.527378   1.450635 H        1 UNL1     0.0342
     113 H         -3.200068   0.10231   2.119244 H        1 UNL1     0.0342
     114 H         -4.405929   -0.088393   0.843509 H        1 UNL1     0.0342
     115 H         -2.659811   1.960622   3.301111 H        1 UNL1     0.0234
     116 H         -1.154705   1.933094   4.225602 H        1 UNL1     0.0234
     117 H         -1.629416   3.311007   3.210883 H        1 UNL1     0.0234
     118 H         0.939717   7.681442   -0.797062 H        1 UNL1     0.0309
     119 H         2.211456   7.778915   -2.054535 H        1 UNL1     0.0309
     120 H         1.453879   6.260008   -1.628912 H        1 UNL1     0.0309
     121 H         -0.354817   6.297517   2.789485 H        1 UNL1     0.0524
     122 H         -2.088823   6.039091   2.558626 H        1 UNL1     0.0524
     123 H         -1.275494   5.340229   3.98124 H        1 UNL1     0.0524
@<TRIPOS>BOND
     1     1     2    1
     2     1    42    1
     3     2     3    2
     4     3     4    1
     5     4     5    2
     6     5     7    1
     7     6    75    1
     8     6    76    1
     9     6    77    1
    10     7     9   am
    11     9    10    1
    12    10    11    2
    13    10    43    1
    14    11    14    1
    15    11    15    1
    16    12    13   ar
    17    12    27   ar
    18    12    43    1
    19    13    14    1
    20    13    30   ar
    21    14    17    2
    22    15    16    1
    23    16    17    1
    24    16    18    1
    25    16    22    1
    26    18    19    1
    27    19    20    1
    28    20    21    1
    29    21    22    1
    30    23    24    1
    31    23    88    1
    32    23    89    1
    33    24    25    1
    34    24    26    1
    35    24    90    1
    36    25    91    1
    37    25    92    1
    38    25    93    1
    39    26    94    1
    40    26    95    1
    41    26    96    1
    42    27    28   ar
    43    28    29   ar
    44    29    30   ar
    45    29    31    1
    46    30    33    1
    47    31    32    1
    48    32    33    1
    49    32    35    1
    50    34    97    1
    51    34    98    1
    52    34    99    1
    53    35    61    1
    54    36    37    1
    55    36    60    1
    56    37    38    1
    57    38    39    1
    58    39    40    1
    59    40    41    1
    60    41    42    1
    61    45   100    1
    62    47   101    1
    63    47   102    1
    64    47   103    1
    65    48   104    1
    66    49   105    1
    67    49   106    1
    68    49   107    1
    69    50   108    1
    70    51    59    1
    71    52   109    1
    72    52   110    1
    73    52   111    1
    74    53    54    1
    75    54    55    2
    76    54    56    1
    77    56   112    1
    78    56   113    1
    79    56   114    1
    80    57   115    1
    81    57   116    1
    82    57   117    1
    83    58   118    1
    84    58   119    1
    85    58   120    1
    86    59   121    1
    87    59   122    1
    88    59   123    1
    89    60    61    2
    90     1    47    1
    91     1    62    1
    92     2    63    1
    93     3    64    1
    94     4    65    1
    95     5     6    1
    96     7     8    2
    97     9    78    1
    98    15    79    1
    99    18    80    1
   100    18    81    1
   101    19    82    1
   102    19    83    1
   103    20    23    1
   104    21    84    1
   105    21    85    1
   106    22    86    1
   107    22    87    1
   108    27    45    1
   109    28    34    1
   110    32    58    1
   111    33    46    2
   112    36    51    1
   113    36    66    1
   114    37    52    1
   115    37    67    1
   116    38    53    1
   117    38    68    1
   118    42    48    1
   119    42    72    1
   120    43    44    2
   121    60    73    1
   122    61    74    1
   123    39    69    1
   124    39    57    1
   125    40    70    1
   126    40    50    1
   127    41    71    1
   128    41    49    1
