@<TRIPOS>MOLECULE
*****
 123 128 0 0 0
SMALL
GASTEIGER

@<TRIPOS>ATOM
     1 C         5.080588   1.923596   0.697621 C.3        1 UNL1     0.0009
     2 C         6.515921   2.793209   -0.090178 C.2        1 UNL1     -0.0787
     3 C         7.822837   2.75087   -0.711648 C.2        1 UNL1     -0.0649
     4 C         8.680872   4.027846   -1.418376 C.2        1 UNL1     -0.0542
     5 C         9.721641   4.370925   -2.316249 C.2        1 UNL1     0.0115
     6 C         10.901018   3.799328   -3.150317 C.3        1 UNL1     -0.0348
     7 C         9.784427   5.865762   -2.898063 C.2        1 UNL1     0.2441
     8 O         10.564545   6.710283   -2.480059 O.2        1 UNL1     -0.2702
     9 N         9.068309   6.063869   -4.091411 N.am        1 UNL1     -0.2772
     10 C         7.76237   6.399856   -3.817626 C.2        1 UNL1     0.1049
     11 C         6.942539   5.394632   -3.569385 C.2        1 UNL1     0.0801
     12 C         6.358717   7.937515   -2.431012 C.ar        1 UNL1     0.0753
     13 C         5.62575   6.776602   -2.026477 C.ar        1 UNL1     0.0305
     14 C         5.812011   5.485936   -2.685673 C.2        1 UNL1     0.0924
     15 N         7.118446   4.073449   -3.742761 N.pl3        1 UNL1     -0.3170
     16 C         5.860878   3.424775   -3.48199 C.3        1 UNL1     0.1275
     17 N         5.156827   4.341643   -2.511738 N.2        1 UNL1     -0.2557
     18 C         5.050823   3.472875   -4.773965 C.3        1 UNL1     0.0016
     19 C         5.868591   2.833438   -5.884805 C.3        1 UNL1     0.0026
     20 N         6.174693   1.460052   -5.509121 N.3        1 UNL1     -0.3018
     21 C         6.899868   1.307898   -4.246053 C.3        1 UNL1     0.0026
     22 C         6.058298   1.953026   -3.143572 C.3        1 UNL1     0.0016
     23 C         6.686703   0.673949   -6.613898 C.3        1 UNL1     0.0012
     24 C         5.575782   0.398659   -7.639484 C.3        1 UNL1     -0.0339
     25 C         5.616415   1.409342   -8.797467 C.3        1 UNL1     -0.0615
     26 C         5.673529   -1.031309   -8.141896 C.3        1 UNL1     -0.0615
     27 C         6.089878   9.188707   -1.881138 C.ar        1 UNL1     0.1347
     28 C         5.088988   9.409241   -0.951819 C.ar        1 UNL1     0.0342
     29 C         4.413231   8.243644   -0.532413 C.ar        1 UNL1     0.1435
     30 C         4.696165   6.97813   -1.047818 C.ar        1 UNL1     0.0774
     31 O         3.339832   8.307036   0.28539 O.3        1 UNL1     -0.4436
     32 C         2.668442   7.051671   0.100545 C.3        1 UNL1     0.3143
     33 C         3.734744   6.103486   -0.409513 C.2        1 UNL1     0.2504
     34 C         4.57816   10.751681   -0.507961 C.3        1 UNL1     -0.0327
     35 O         2.278331   6.582295   1.396983 O.2        1 UNL1     -0.4528
     36 C         -0.877219   4.542378   0.859089 C.3        1 UNL1     0.0854
     37 C         -1.105554   3.285647   -0.066121 C.3        1 UNL1     0.0236
     38 C         -1.687228   1.992122   0.682338 C.3        1 UNL1     0.1131
     39 C         -0.98839   1.467426   2.000894 C.3        1 UNL1     0.0200
     40 C         0.674541   1.3804   2.098495 C.3        1 UNL1     0.0661
     41 C         1.700982   0.664164   0.953491 C.3        1 UNL1     0.0091
     42 C         3.412926   1.095786   0.455143 C.3        1 UNL1     0.0661
     43 C         7.35395   7.780919   -3.520621 C.2        1 UNL1     0.2131
     44 O         7.745881   8.703552   -4.211907 O.2        1 UNL1     -0.2851
     45 O         6.879713   10.258937   -2.296116 O.3        1 UNL1     -0.5056
     46 O         3.789569   4.899417   -0.295208 O.2        1 UNL1     -0.2836
     47 C         5.442041   1.486482   2.142704 C.3        1 UNL1     -0.0566
     48 O         3.908968   -0.299573   0.532806 O.3        1 UNL1     -0.3909
     49 C         0.919245   0.421106   -0.318242 C.3        1 UNL1     -0.0577
     50 O         1.216449   2.612661   2.529299 O.3        1 UNL1     -0.3910
     51 O         -1.042586   4.327109   2.24247 O.3        1 UNL1     -0.3753
     52 C         -0.016637   3.180081   -1.183289 C.3        1 UNL1     -0.0564
     53 O         -2.220398   0.946291   -0.252699 O.3        1 UNL1     -0.4608
     54 C         -2.419185   -0.373018   0.060089 C.2        1 UNL1     0.3042
     55 O         -1.799587   -1.344464   -0.371454 O.2        1 UNL1     -0.2512
     56 C         -3.489094   -0.591918   1.091637 C.3        1 UNL1     0.0332
     57 C         -1.776391   2.090965   3.245253 C.3        1 UNL1     -0.0567
     58 C         1.62337   7.27498   -1.017259 C.3        1 UNL1     0.0210
     59 C         -1.423574   5.482759   2.987579 C.3        1 UNL1     0.0372
     60 C         0.435433   5.221756   0.684295 C.2        1 UNL1     -0.0208
     61 C         1.301372   5.675786   1.591351 C.2        1 UNL1     0.0882
     62 H         4.566754   2.88878   0.781913 H        1 UNL1     0.0365
     63 H         6.208362   3.835144   0.020501 H        1 UNL1     0.0576
     64 H         8.322444   1.804396   -0.930023 H        1 UNL1     0.0615
     65 H         8.149366   4.919933   -1.076082 H        1 UNL1     0.0622
     66 H         -1.637089   5.266636   0.533368 H        1 UNL1     0.0645
     67 H         -1.959966   3.573386   -0.703103 H        1 UNL1     0.0362
     68 H         -2.661064   2.389625   1.006618 H        1 UNL1     0.0741
     69 H         -1.289824   0.44231   2.170256 H        1 UNL1     0.0359
     70 H         0.779415   0.711036   2.973718 H        1 UNL1     0.0600
     71 H         1.766515   -0.361228   1.367295 H        1 UNL1     0.0348
     72 H         3.255594   1.564855   1.437251 H        1 UNL1     0.0602
     73 H         0.582025   5.438926   -0.344586 H        1 UNL1     0.0628
     74 H         1.254333   5.448268   2.656837 H        1 UNL1     0.1022
     75 H         10.962273   2.690398   -3.033886 H        1 UNL1     0.0279
     76 H         10.834513   3.918254   -4.229438 H        1 UNL1     0.0279
     77 H         11.883518   4.112111   -2.767486 H        1 UNL1     0.0279
     78 H         9.055953   5.200407   -4.63026 H        1 UNL1     0.1553
     79 H         7.819728   3.678877   -4.342303 H        1 UNL1     0.1484
     80 H         4.10171   2.945174   -4.620723 H        1 UNL1     0.0317
     81 H         4.796522   4.504949   -5.038171 H        1 UNL1     0.0317
     82 H         6.787536   3.401214   -6.09237 H        1 UNL1     0.0428
     83 H         5.273164   2.879982   -6.797138 H        1 UNL1     0.0428
     84 H         7.046913   0.265267   -3.947538 H        1 UNL1     0.0428
     85 H         7.919004   1.713851   -4.308349 H        1 UNL1     0.0428
     86 H         6.551603   1.707295   -2.22148 H        1 UNL1     0.0317
     87 H         5.09296   1.439025   -3.059778 H        1 UNL1     0.0317
     88 H         7.480526   1.251706   -7.105158 H        1 UNL1     0.0429
     89 H         7.14068   -0.261116   -6.261292 H        1 UNL1     0.0429
     90 H         4.601304   0.475676   -7.142821 H        1 UNL1     0.0308
     91 H         6.588771   1.400666   -9.299015 H        1 UNL1     0.0233
     92 H         4.834023   1.191273   -9.528163 H        1 UNL1     0.0233
     93 H         5.441627   2.438177   -8.460151 H        1 UNL1     0.0233
     94 H         5.013675   -1.174543   -9.004399 H        1 UNL1     0.0233
     95 H         6.697192   -1.245976   -8.461263 H        1 UNL1     0.0233
     96 H         5.388363   -1.747258   -7.365967 H        1 UNL1     0.0233
     97 H         3.755894   10.662432   0.195702 H        1 UNL1     0.0280
     98 H         5.350501   11.339309   0.005303 H        1 UNL1     0.0280
     99 H         4.2235   11.319544   -1.383657 H        1 UNL1     0.0280
     100 H         6.397349   10.997833   -2.623192 H        1 UNL1     0.2922
     101 H         4.574723   1.026   2.615326 H        1 UNL1     0.0236
     102 H         5.854486   2.295459   2.744726 H        1 UNL1     0.0236
     103 H         6.217463   0.702439   2.156481 H        1 UNL1     0.0236
     104 H         4.301903   -0.424038   1.418854 H        1 UNL1     0.2098
     105 H         0.694344   1.320484   -0.886 H        1 UNL1     0.0234
     106 H         1.339339   -0.343153   -0.971967 H        1 UNL1     0.0234
     107 H         0.0   -0.0   0.0 H        1 UNL1     0.0234
     108 H         1.024029   3.27256   1.835558 H        1 UNL1     0.2098
     109 H         0.998834   3.109732   -0.769065 H        1 UNL1     0.0234
     110 H         -0.188719   2.348262   -1.874815 H        1 UNL1     0.0234
     111 H         -0.012996   4.067553   -1.83007 H        1 UNL1     0.0234
     112 H         -3.58234   -1.660031   1.310235 H        1 UNL1     0.0342
     113 H         -3.304226   -0.021731   2.000788 H        1 UNL1     0.0342
     114 H         -4.445125   -0.249242   0.67242 H        1 UNL1     0.0342
     115 H         -2.837045   1.804276   3.242179 H        1 UNL1     0.0234
     116 H         -1.36372   1.812217   4.216876 H        1 UNL1     0.0234
     117 H         -1.852981   3.191368   3.210788 H        1 UNL1     0.0234
     118 H         0.690987   7.72175   -0.629875 H        1 UNL1     0.0309
     119 H         1.999927   7.889876   -1.840855 H        1 UNL1     0.0309
     120 H         1.284766   6.336506   -1.469718 H        1 UNL1     0.0309
     121 H         -0.62415   6.216678   2.889383 H        1 UNL1     0.0524
     122 H         -2.347304   5.944282   2.600595 H        1 UNL1     0.0524
     123 H         -1.569361   5.224879   4.032729 H        1 UNL1     0.0524
@<TRIPOS>BOND
     1     1     2    1
     2     1    42    1
     3     2     3    2
     4     3     4    1
     5     4     5    2
     6     5     7    1
     7     6    75    1
     8     6    76    1
     9     6    77    1
    10     7     9   am
    11     9    10    1
    12    10    11    2
    13    10    43    1
    14    11    14    1
    15    11    15    1
    16    12    13   ar
    17    12    27   ar
    18    12    43    1
    19    13    14    1
    20    13    30   ar
    21    14    17    2
    22    15    16    1
    23    16    17    1
    24    16    18    1
    25    16    22    1
    26    18    19    1
    27    19    20    1
    28    20    21    1
    29    21    22    1
    30    23    24    1
    31    23    88    1
    32    23    89    1
    33    24    25    1
    34    24    26    1
    35    24    90    1
    36    25    91    1
    37    25    92    1
    38    25    93    1
    39    26    94    1
    40    26    95    1
    41    26    96    1
    42    27    28   ar
    43    28    29   ar
    44    29    30   ar
    45    29    31    1
    46    30    33    1
    47    31    32    1
    48    32    33    1
    49    32    35    1
    50    34    97    1
    51    34    98    1
    52    34    99    1
    53    35    61    1
    54    36    37    1
    55    36    60    1
    56    37    38    1
    57    38    39    1
    58    39    40    1
    59    40    41    1
    60    41    42    1
    61    45   100    1
    62    47   101    1
    63    47   102    1
    64    47   103    1
    65    48   104    1
    66    49   105    1
    67    49   106    1
    68    49   107    1
    69    50   108    1
    70    51    59    1
    71    52   109    1
    72    52   110    1
    73    52   111    1
    74    53    54    1
    75    54    55    2
    76    54    56    1
    77    56   112    1
    78    56   113    1
    79    56   114    1
    80    57   115    1
    81    57   116    1
    82    57   117    1
    83    58   118    1
    84    58   119    1
    85    58   120    1
    86    59   121    1
    87    59   122    1
    88    59   123    1
    89    60    61    2
    90     1    47    1
    91     1    62    1
    92     2    63    1
    93     3    64    1
    94     4    65    1
    95     5     6    1
    96     7     8    2
    97     9    78    1
    98    15    79    1
    99    18    80    1
   100    18    81    1
   101    19    82    1
   102    19    83    1
   103    20    23    1
   104    21    84    1
   105    21    85    1
   106    22    86    1
   107    22    87    1
   108    27    45    1
   109    28    34    1
   110    32    58    1
   111    33    46    2
   112    36    51    1
   113    36    66    1
   114    37    52    1
   115    37    67    1
   116    38    53    1
   117    38    68    1
   118    42    48    1
   119    42    72    1
   120    43    44    2
   121    60    73    1
   122    61    74    1
   123    39    69    1
   124    39    57    1
   125    40    70    1
   126    40    50    1
   127    41    71    1
   128    41    49    1
