@<TRIPOS>MOLECULE
*****
 123 128 0 0 0
SMALL
GASTEIGER

@<TRIPOS>ATOM
     1 C         4.709586   2.666487   0.76067 C.3        1 UNL1     0.0009
     2 C         5.946847   3.812488   -0.009332 C.2        1 UNL1     -0.0787
     3 C         7.241788   4.038824   -0.615919 C.2        1 UNL1     -0.0649
     4 C         7.830203   5.466153   -1.310797 C.2        1 UNL1     -0.0542
     5 C         8.789281   6.016895   -2.196196 C.2        1 UNL1     0.0115
     6 C         10.069146   5.699927   -3.017658 C.3        1 UNL1     -0.0348
     7 C         8.553467   7.495573   -2.774896 C.2        1 UNL1     0.2441
     8 O         9.141223   8.479294   -2.346689 O.2        1 UNL1     -0.2702
     9 N         7.825029   7.548738   -3.976022 N.am        1 UNL1     -0.2772
     10 C         6.475178   7.611471   -3.716622 C.2        1 UNL1     0.1049
     11 C         5.873949   6.459758   -3.479335 C.2        1 UNL1     0.0801
     12 C         4.773523   8.826687   -2.343685 C.ar        1 UNL1     0.0753
     13 C         4.287267   7.539567   -1.94937 C.ar        1 UNL1     0.0305
     14 C         4.73892   6.316172   -2.608435 C.2        1 UNL1     0.0924
     15 N         6.31639   5.202503   -3.652779 N.pl3        1 UNL1     -0.3170
     16 C         5.214024   4.310971   -3.407394 C.3        1 UNL1     0.1275
     17 N         4.327947   5.06201   -2.443791 N.2        1 UNL1     -0.2557
     18 C         4.425148   4.198561   -4.708448 C.3        1 UNL1     0.0016
     19 C         5.367743   3.742804   -5.810895 C.3        1 UNL1     0.0026
     20 N         5.942305   2.458752   -5.433911 N.3        1 UNL1     -0.3018
     21 C         6.669522   2.452152   -4.162895 C.3        1 UNL1     0.0026
     22 C         5.702556   2.90868   -3.069069 C.3        1 UNL1     0.0016
     23 C         6.615255   1.797274   -6.534015 C.3        1 UNL1     0.0012
     24 C         5.594592   1.30609   -7.57264 C.3        1 UNL1     -0.0339
     25 C         6.048804   -0.007636   -8.229812 C.3        1 UNL1     -0.0615
     26 C         4.225087   1.165904   -6.931093 C.3        1 UNL1     -0.0615
     27 C         4.250222   9.995085   -1.79494 C.ar        1 UNL1     0.1347
     28 C         3.21538   10.004185   -0.876752 C.ar        1 UNL1     0.0342
     29 C         2.785929   8.724038   -0.466922 C.ar        1 UNL1     0.1435
     30 C         3.325565   7.544346   -0.981063 C.ar        1 UNL1     0.0774
     31 O         1.713218   8.564977   0.338682 O.3        1 UNL1     -0.4436
     32 C         1.312831   7.200154   0.14421 C.3        1 UNL1     0.3143
     33 C         2.554953   6.490233   -0.355147 C.2        1 UNL1     0.2504
     34 C         2.437766   11.213197   -0.436632 C.3        1 UNL1     -0.0327
     35 O         1.012138   6.656335   1.435371 O.2        1 UNL1     -0.4528
     36 C         -1.657315   4.020221   0.858296 C.3        1 UNL1     0.0854
     37 C         -1.6156   2.74689   -0.071441 C.3        1 UNL1     0.0236
     38 C         -1.930523   1.359316   0.668293 C.3        1 UNL1     0.1131
     39 C         -1.154032   0.982376   1.993905 C.3        1 UNL1     0.0200
     40 C         0.490757   1.234475   2.110332 C.3        1 UNL1     0.0661
     41 C         1.653632   0.746027   0.975983 C.3        1 UNL1     0.0091
     42 C         3.247539   1.518219   0.497878 C.3        1 UNL1     0.0661
     43 C         5.79158   8.879664   -3.422117 C.2        1 UNL1     0.2131
     44 O         5.995433   9.865325   -4.10743 O.2        1 UNL1     -0.2851
     45 O         4.810688   11.205001   -2.199192 O.3        1 UNL1     -0.5056
     46 O         2.851938   5.321952   -0.242125 O.2        1 UNL1     -0.2836
     47 C         5.136583   2.306303   2.20909 C.3        1 UNL1     -0.0566
     48 O         4.015765   0.252373   0.578992 O.3        1 UNL1     -0.3909
     49 C         0.951397   0.354201   -0.304967 C.3        1 UNL1     -0.0577
     50 O         0.766394   2.549433   2.549233 O.3        1 UNL1     -0.3910
     51 O         -1.790514   3.770516   2.23936 O.3        1 UNL1     -0.3753
     52 C         -0.515882   2.868963   -1.176279 C.3        1 UNL1     -0.0564
     53 O         -2.229997   0.230625   -0.274414 O.3        1 UNL1     -0.4608
     54 C         -1.845119   -1.073174   -0.101475 C.2        1 UNL1     0.3042
     55 O         -0.91957   -1.659252   -0.661572 O.2        1 UNL1     -0.2512
     56 C         -2.643754   -1.802766   0.940922 C.3        1 UNL1     0.0332
     57 C         -2.065702   1.428095   3.230177 C.3        1 UNL1     -0.0567
     58 C         0.256375   7.210904   -0.985089 C.3        1 UNL1     0.0210
     59 C         -3.067386   4.095667   2.786845 C.3        1 UNL1     0.0372
     60 C         -0.508185   4.952672   0.69956 C.2        1 UNL1     -0.0208
     61 C         0.237601   5.56958   1.617151 C.2        1 UNL1     0.0882
     62 H         4.00955   3.506885   0.840618 H        1 UNL1     0.0365
     63 H         5.4329   4.769822   0.099476 H        1 UNL1     0.0576
     64 H         7.925549   3.214375   -0.830074 H        1 UNL1     0.0615
     65 H         7.124912   6.230392   -0.97318 H        1 UNL1     0.0622
     66 H         -2.544865   4.576336   0.525072 H        1 UNL1     0.0645
     67 H         -2.503682   2.857588   -0.717673 H        1 UNL1     0.0362
     68 H         -2.968254   1.549526   0.982069 H        1 UNL1     0.0741
     69 H         -1.242803   -0.083239   2.1582 H        1 UNL1     0.0359
     70 H         0.71989   0.59698   2.985637 H        1 UNL1     0.0600
     71 H         1.921562   -0.246284   1.388889 H        1 UNL1     0.0348
     72 H         2.987572   1.941769   1.478866 H        1 UNL1     0.0602
     73 H         -0.397602   5.199057   -0.327237 H        1 UNL1     0.0628
     74 H         0.226195   5.333137   2.68167 H        1 UNL1     0.1022
     75 H         10.814348   5.156328   -2.388207 H        1 UNL1     0.0279
     76 H         9.947396   5.031097   -3.866723 H        1 UNL1     0.0279
     77 H         10.633885   6.6034   -3.290619 H        1 UNL1     0.0279
     78 H         7.994145   6.702845   -4.516339 H        1 UNL1     0.1553
     79 H         7.089655   4.960879   -4.244904 H        1 UNL1     0.1484
     80 H         3.601386   3.488532   -4.566876 H        1 UNL1     0.0317
     81 H         3.969416   5.158503   -4.973909 H        1 UNL1     0.0317
     82 H         6.154418   4.486156   -6.007067 H        1 UNL1     0.0428
     83 H         4.785207   3.670989   -6.729886 H        1 UNL1     0.0428
     84 H         7.022011   1.45996   -3.864368 H        1 UNL1     0.0428
     85 H         7.585583   3.056839   -4.212921 H        1 UNL1     0.0428
     86 H         6.225454   2.764684   -2.141799 H        1 UNL1     0.0317
     87 H         4.86088   2.209039   -2.997104 H        1 UNL1     0.0317
     88 H         7.280474   2.526086   -7.015276 H        1 UNL1     0.0429
     89 H         7.245829   0.972525   -6.177729 H        1 UNL1     0.0429
     90 H         5.482796   2.067027   -8.354106 H        1 UNL1     0.0308
     91 H         6.404798   -0.723625   -7.482999 H        1 UNL1     0.0233
     92 H         5.231445   -0.458282   -8.797659 H        1 UNL1     0.0233
     93 H         6.86903   0.143447   -8.942018 H        1 UNL1     0.0233
     94 H         3.604477   0.475574   -7.512577 H        1 UNL1     0.0233
     95 H         4.32559   0.759472   -5.920809 H        1 UNL1     0.0233
     96 H         3.710457   2.12919   -6.874473 H        1 UNL1     0.0233
     97 H         1.375664   11.110006   -0.637929 H        1 UNL1     0.0280
     98 H         2.523176   11.389479   0.643593 H        1 UNL1     0.0280
     99 H         2.805985   12.103748   -0.971823 H        1 UNL1     0.0280
     100 H         5.750683   11.23241   -2.1634 H        1 UNL1     0.2922
     101 H         4.52023   2.854624   2.921207 H        1 UNL1     0.0236
     102 H         6.200673   2.452938   2.391281 H        1 UNL1     0.0236
     103 H         4.955386   1.243736   2.44214 H        1 UNL1     0.0236
     104 H         4.322158   0.034973   -0.323134 H        1 UNL1     0.2098
     105 H         0.793688   1.175176   -0.999904 H        1 UNL1     0.0234
     106 H         1.389777   -0.499361   -0.821863 H        1 UNL1     0.0234
     107 H         0.0   -0.0   0.0 H        1 UNL1     0.0234
     108 H         1.15882   2.481362   3.440938 H        1 UNL1     0.2098
     109 H         -0.630448   3.781236   -1.77823 H        1 UNL1     0.0234
     110 H         0.502828   2.819003   -0.776932 H        1 UNL1     0.0234
     111 H         -0.563689   2.034734   -1.888826 H        1 UNL1     0.0234
     112 H         -2.273464   -2.827281   1.043874 H        1 UNL1     0.0342
     113 H         -2.635098   -1.286024   1.899435 H        1 UNL1     0.0342
     114 H         -3.686956   -1.854376   0.599997 H        1 UNL1     0.0342
     115 H         -2.718023   0.612536   3.571541 H        1 UNL1     0.0234
     116 H         -1.499751   1.779803   4.095076 H        1 UNL1     0.0234
     117 H         -2.809151   2.201807   2.97212 H        1 UNL1     0.0234
     118 H         -0.753983   6.971238   -0.609932 H        1 UNL1     0.0309
     119 H         0.220244   8.159232   -1.530591 H        1 UNL1     0.0309
     120 H         0.437118   6.435155   -1.737187 H        1 UNL1     0.0309
     121 H         -2.927452   4.307793   3.846457 H        1 UNL1     0.0524
     122 H         -3.504599   4.995546   2.323055 H        1 UNL1     0.0524
     123 H         -3.754185   3.263827   2.658612 H        1 UNL1     0.0524
@<TRIPOS>BOND
     1     1     2    1
     2     1    42    1
     3     2     3    2
     4     3     4    1
     5     4     5    2
     6     5     7    1
     7     6    75    1
     8     6    76    1
     9     6    77    1
    10     7     9   am
    11     9    10    1
    12    10    11    2
    13    10    43    1
    14    11    14    1
    15    11    15    1
    16    12    13   ar
    17    12    27   ar
    18    12    43    1
    19    13    14    1
    20    13    30   ar
    21    14    17    2
    22    15    16    1
    23    16    17    1
    24    16    18    1
    25    16    22    1
    26    18    19    1
    27    19    20    1
    28    20    21    1
    29    21    22    1
    30    23    24    1
    31    23    88    1
    32    23    89    1
    33    24    25    1
    34    24    26    1
    35    24    90    1
    36    25    91    1
    37    25    92    1
    38    25    93    1
    39    26    94    1
    40    26    95    1
    41    26    96    1
    42    27    28   ar
    43    28    29   ar
    44    29    30   ar
    45    29    31    1
    46    30    33    1
    47    31    32    1
    48    32    33    1
    49    32    35    1
    50    34    97    1
    51    34    98    1
    52    34    99    1
    53    35    61    1
    54    36    37    1
    55    36    60    1
    56    37    38    1
    57    38    39    1
    58    39    40    1
    59    40    41    1
    60    41    42    1
    61    45   100    1
    62    47   101    1
    63    47   102    1
    64    47   103    1
    65    48   104    1
    66    49   105    1
    67    49   106    1
    68    49   107    1
    69    50   108    1
    70    51    59    1
    71    52   109    1
    72    52   110    1
    73    52   111    1
    74    53    54    1
    75    54    55    2
    76    54    56    1
    77    56   112    1
    78    56   113    1
    79    56   114    1
    80    57   115    1
    81    57   116    1
    82    57   117    1
    83    58   118    1
    84    58   119    1
    85    58   120    1
    86    59   121    1
    87    59   122    1
    88    59   123    1
    89    60    61    2
    90     1    47    1
    91     1    62    1
    92     2    63    1
    93     3    64    1
    94     4    65    1
    95     5     6    1
    96     7     8    2
    97     9    78    1
    98    15    79    1
    99    18    80    1
   100    18    81    1
   101    19    82    1
   102    19    83    1
   103    20    23    1
   104    21    84    1
   105    21    85    1
   106    22    86    1
   107    22    87    1
   108    27    45    1
   109    28    34    1
   110    32    58    1
   111    33    46    2
   112    36    51    1
   113    36    66    1
   114    37    52    1
   115    37    67    1
   116    38    53    1
   117    38    68    1
   118    42    48    1
   119    42    72    1
   120    43    44    2
   121    60    73    1
   122    61    74    1
   123    39    69    1
   124    39    57    1
   125    40    70    1
   126    40    50    1
   127    41    71    1
   128    41    49    1
