@<TRIPOS>MOLECULE
*****
 123 128 0 0 0
SMALL
GASTEIGER

@<TRIPOS>ATOM
     1 C         0.644333   -4.970519   -2.164267 C.3        1 UNL1     0.0009
     2 C         -0.112645   -6.653226   -2.344602 C.2        1 UNL1     -0.0787
     3 C         -0.140099   -8.060887   -2.007287 C.2        1 UNL1     -0.0649
     4 C         -1.289033   -9.2179   -2.462951 C.2        1 UNL1     -0.0542
     5 C         -1.841242   -10.487232   -2.161388 C.2        1 UNL1     0.0115
     6 C         -1.658069   -11.763577   -1.29495 C.3        1 UNL1     -0.0348
     7 C         -3.274609   -10.875557   -2.77102 C.2        1 UNL1     0.2441
     8 O         -3.409166   -11.61801   -3.733923 O.2        1 UNL1     -0.2702
     9 N         -4.37227   -10.517964   -1.968886 N.am        1 UNL1     -0.2772
     10 C         -4.779519   -9.235455   -2.25636 C.2        1 UNL1     0.1049
     11 C         -4.111084   -8.265052   -1.659924 C.2        1 UNL1     0.0801
     12 C         -5.360907   -7.718255   -4.158313 C.ar        1 UNL1     0.0753
     13 C         -4.457179   -6.772496   -3.577431 C.ar        1 UNL1     0.0305
     14 C         -3.903988   -6.965299   -2.238828 C.2        1 UNL1     0.0924
     15 N         -3.226079   -8.319865   -0.64983 N.pl3        1 UNL1     -0.3170
     16 C         -2.920629   -6.9691   -0.259465 C.3        1 UNL1     0.1275
     17 N         -3.140231   -6.155189   -1.511282 N.2        1 UNL1     -0.2557
     18 C         -3.998397   -6.52868   0.726511 C.3        1 UNL1     0.0016
     19 C         -4.039094   -7.520911   1.877776 C.3        1 UNL1     0.0026
     20 N         -2.729214   -7.55376   2.513514 N.3        1 UNL1     -0.3018
     21 C         -1.617388   -7.907695   1.628674 C.3        1 UNL1     0.0026
     22 C         -1.592391   -6.895456   0.482095 C.3        1 UNL1     0.0016
     23 C         -2.740486   -8.233579   3.793499 C.3        1 UNL1     0.0012
     24 C         -1.339423   -8.766115   4.132888 C.3        1 UNL1     -0.0339
     25 C         -0.51692   -9.035011   2.861967 C.3        1 UNL1     -0.0615
     26 C         -0.627646   -7.801817   5.065778 C.3        1 UNL1     -0.0615
     27 C         -5.97764   -7.469506   -5.382194 C.ar        1 UNL1     0.1347
     28 C         -5.800259   -6.297909   -6.0963 C.ar        1 UNL1     0.0342
     29 C         -4.868626   -5.402658   -5.529071 C.ar        1 UNL1     0.1435
     30 C         -4.215725   -5.654384   -4.32177 C.ar        1 UNL1     0.0774
     31 O         -4.668906   -4.171235   -6.04745 O.3        1 UNL1     -0.4436
     32 C         -4.060309   -3.424142   -4.983338 C.3        1 UNL1     0.3143
     33 C         -3.427321   -4.463933   -4.080912 C.2        1 UNL1     0.2504
     34 C         -6.61416   -5.855125   -7.280195 C.3        1 UNL1     -0.0327
     35 O         -2.990577   -2.661733   -5.555752 O.2        1 UNL1     -0.4528
     36 C         -2.694601   0.471785   -3.434066 C.3        1 UNL1     0.0854
     37 C         -2.445443   0.604483   -1.882347 C.3        1 UNL1     0.0236
     38 C         -1.185449   1.509077   -1.475075 C.3        1 UNL1     0.1131
     39 C         0.223213   1.239254   -2.14226 C.3        1 UNL1     0.0200
     40 C         0.783687   -0.320418   -2.33129 C.3        1 UNL1     0.0661
     41 C         0.830859   -1.512354   -1.125192 C.3        1 UNL1     0.0091
     42 C         0.647591   -3.333787   -1.244345 C.3        1 UNL1     0.0661
     43 C         -5.688897   -8.933131   -3.371701 C.2        1 UNL1     0.2131
     44 O         -6.694907   -9.596641   -3.546157 O.2        1 UNL1     -0.2851
     45 O         -6.807966   -8.461621   -5.899595 O.3        1 UNL1     -0.5056
     46 O         -2.473165   -4.342975   -3.345515 O.2        1 UNL1     -0.2836
     47 C         1.983119   -4.894818   -2.946509 C.3        1 UNL1     -0.0566
     48 O         1.831232   -3.622506   -0.398915 O.3        1 UNL1     -0.3909
     49 C         -0.017004   -1.059027   0.042334 C.3        1 UNL1     -0.0577
     50 O         0.316082   -0.877563   -3.543172 O.3        1 UNL1     -0.3910
     51 O         -1.69295   1.010434   -4.267124 O.3        1 UNL1     -0.3753
     52 C         -2.803365   -0.713427   -1.120799 C.3        1 UNL1     -0.0564
     53 O         -1.174099   1.906386   -0.02789 O.3        1 UNL1     -0.4608
     54 C         -1.841434   1.259883   0.979397 C.2        1 UNL1     0.3042
     55 O         -2.35886   1.763248   1.975756 O.2        1 UNL1     -0.2512
     56 C         -1.97231   -0.220571   0.76067 C.3        1 UNL1     0.0332
     57 C         0.369038   2.239025   -3.382166 C.3        1 UNL1     -0.0567
     58 C         -5.213562   -2.734689   -4.217707 C.3        1 UNL1     0.0210
     59 C         -1.938051   0.871667   -5.665886 C.3        1 UNL1     0.0372
     60 C         -2.952415   -0.913481   -3.913368 C.2        1 UNL1     -0.0208
     61 C         -2.468933   -1.566236   -4.971149 C.2        1 UNL1     0.0882
     62 H         -0.130273   -4.571717   -2.83034 H        1 UNL1     0.0365
     63 H         -0.871525   -6.454723   -3.104317 H        1 UNL1     0.0576
     64 H         0.531057   -8.482618   -1.255756 H        1 UNL1     0.0615
     65 H         -1.849679   -8.727323   -3.26326 H        1 UNL1     0.0622
     66 H         -3.624036   1.030467   -3.613152 H        1 UNL1     0.0645
     67 H         -3.285816   1.226453   -1.528109 H        1 UNL1     0.0362
     68 H         -1.517582   2.47859   -1.87664 H        1 UNL1     0.0741
     69 H         0.990837   1.694593   -1.530845 H        1 UNL1     0.0359
     70 H         1.855802   -0.116695   -2.516028 H        1 UNL1     0.0600
     71 H         1.851959   -1.346386   -0.729256 H        1 UNL1     0.0348
     72 H         0.900824   -2.987598   -2.256937 H        1 UNL1     0.0602
     73 H         -3.732267   -1.343573   -3.335355 H        1 UNL1     0.0628
     74 H         -1.632038   -1.221022   -5.579156 H        1 UNL1     0.1022
     75 H         -0.65231   -11.766965   -0.809698 H        1 UNL1     0.0279
     76 H         -2.328396   -11.873584   -0.445462 H        1 UNL1     0.0279
     77 H         -1.61153   -12.683025   -1.89674 H        1 UNL1     0.0279
     78 H         -4.100967   -10.540625   -0.988091 H        1 UNL1     0.1553
     79 H         -3.144462   -9.098779   -0.022482 H        1 UNL1     0.1484
     80 H         -3.768463   -5.515815   1.078648 H        1 UNL1     0.0317
     81 H         -4.977443   -6.476076   0.238297 H        1 UNL1     0.0317
     82 H         -4.340703   -8.523551   1.540646 H        1 UNL1     0.0428
     83 H         -4.815337   -7.188966   2.567928 H        1 UNL1     0.0428
     84 H         -0.636734   -7.847369   2.110846 H        1 UNL1     0.0428
     85 H         -1.682899   -8.94985   1.286712 H        1 UNL1     0.0428
     86 H         -0.693281   -7.103078   -0.067888 H        1 UNL1     0.0317
     87 H         -1.421239   -5.886452   0.876701 H        1 UNL1     0.0317
     88 H         -3.034415   -7.507867   4.563072 H        1 UNL1     0.0429
     89 H         -3.485296   -9.039648   3.810351 H        1 UNL1     0.0429
     90 H         -1.437414   -9.705055   4.690565 H        1 UNL1     0.0308
     91 H         -0.07207   -10.034451   2.88015 H        1 UNL1     0.0233
     92 H         -1.140345   -8.936109   1.970245 H        1 UNL1     0.0233
     93 H         0.307414   -8.322074   2.739373 H        1 UNL1     0.0233
     94 H         -0.889287   -8.02078   6.10666 H        1 UNL1     0.0233
     95 H         0.455396   -7.910748   4.960341 H        1 UNL1     0.0233
     96 H         -0.900609   -6.764696   4.851679 H        1 UNL1     0.0233
     97 H         -5.995089   -5.663674   -8.15159 H        1 UNL1     0.0280
     98 H         -7.342014   -6.616367   -7.590023 H        1 UNL1     0.0280
     99 H         -7.15509   -4.927789   -7.030118 H        1 UNL1     0.0280
     100 H         -6.622257   -8.702462   -6.790174 H        1 UNL1     0.2922
     101 H         2.456273   -3.928572   -2.772865 H        1 UNL1     0.0236
     102 H         1.871819   -5.110734   -4.008571 H        1 UNL1     0.0236
     103 H         2.71657   -5.634639   -2.584697 H        1 UNL1     0.0236
     104 H         2.055806   -2.803086   0.083876 H        1 UNL1     0.2098
     105 H         -1.055335   -1.377322   -0.006334 H        1 UNL1     0.0234
     106 H         0.401414   -1.283727   1.023335 H        1 UNL1     0.0234
     107 H         0.0   0.0   0.0 H        1 UNL1     0.0234
     108 H         0.447135   -0.206563   -4.240561 H        1 UNL1     0.2098
     109 H         -3.518519   -1.334649   -1.67789 H        1 UNL1     0.0234
     110 H         -1.923992   -1.311898   -0.859495 H        1 UNL1     0.0234
     111 H         -3.280598   -0.505291   -0.15391 H        1 UNL1     0.0234
     112 H         -3.029821   -0.498502   0.718602 H        1 UNL1     0.0342
     113 H         -1.445733   -0.550571   -0.133568 H        1 UNL1     0.0342
     114 H         -1.522713   -0.73554   1.620806 H        1 UNL1     0.0342
     115 H         0.864644   3.17655   -3.094746 H        1 UNL1     0.0234
     116 H         0.920828   1.821417   -4.226666 H        1 UNL1     0.0234
     117 H         -0.597206   2.61576   -3.759505 H        1 UNL1     0.0234
     118 H         -6.012959   -3.445486   -3.944324 H        1 UNL1     0.0309
     119 H         -4.878209   -2.209413   -3.317804 H        1 UNL1     0.0309
     120 H         -5.73604   -1.989135   -4.827029 H        1 UNL1     0.0309
     121 H         -1.596381   -0.119237   -5.96376 H        1 UNL1     0.0524
     122 H         -3.010875   0.940639   -5.911506 H        1 UNL1     0.0524
     123 H         -1.399781   1.635847   -6.219409 H        1 UNL1     0.0524
@<TRIPOS>BOND
     1     1     2    1
     2     1    42    1
     3     2     3    2
     4     3     4    1
     5     4     5    2
     6     5     7    1
     7     6    75    1
     8     6    76    1
     9     6    77    1
    10     7     9   am
    11     9    10    1
    12    10    11    2
    13    10    43    1
    14    11    14    1
    15    11    15    1
    16    12    13   ar
    17    12    27   ar
    18    12    43    1
    19    13    14    1
    20    13    30   ar
    21    14    17    2
    22    15    16    1
    23    16    17    1
    24    16    18    1
    25    16    22    1
    26    18    19    1
    27    19    20    1
    28    20    21    1
    29    21    22    1
    30    23    24    1
    31    23    88    1
    32    23    89    1
    33    24    25    1
    34    24    26    1
    35    24    90    1
    36    25    91    1
    37    25    92    1
    38    25    93    1
    39    26    94    1
    40    26    95    1
    41    26    96    1
    42    27    28   ar
    43    28    29   ar
    44    29    30   ar
    45    29    31    1
    46    30    33    1
    47    31    32    1
    48    32    33    1
    49    32    35    1
    50    34    97    1
    51    34    98    1
    52    34    99    1
    53    35    61    1
    54    36    37    1
    55    36    60    1
    56    37    38    1
    57    38    39    1
    58    39    40    1
    59    40    41    1
    60    41    42    1
    61    45   100    1
    62    47   101    1
    63    47   102    1
    64    47   103    1
    65    48   104    1
    66    49   105    1
    67    49   106    1
    68    49   107    1
    69    50   108    1
    70    51    59    1
    71    52   109    1
    72    52   110    1
    73    52   111    1
    74    53    54    1
    75    54    55    2
    76    54    56    1
    77    56   112    1
    78    56   113    1
    79    56   114    1
    80    57   115    1
    81    57   116    1
    82    57   117    1
    83    58   118    1
    84    58   119    1
    85    58   120    1
    86    59   121    1
    87    59   122    1
    88    59   123    1
    89    60    61    2
    90     1    47    1
    91     1    62    1
    92     2    63    1
    93     3    64    1
    94     4    65    1
    95     5     6    1
    96     7     8    2
    97     9    78    1
    98    15    79    1
    99    18    80    1
   100    18    81    1
   101    19    82    1
   102    19    83    1
   103    20    23    1
   104    21    84    1
   105    21    85    1
   106    22    86    1
   107    22    87    1
   108    27    45    1
   109    28    34    1
   110    32    58    1
   111    33    46    2
   112    36    51    1
   113    36    66    1
   114    37    52    1
   115    37    67    1
   116    38    53    1
   117    38    68    1
   118    42    48    1
   119    42    72    1
   120    43    44    2
   121    60    73    1
   122    61    74    1
   123    39    69    1
   124    39    57    1
   125    40    70    1
   126    40    50    1
   127    41    71    1
   128    41    49    1
