@<TRIPOS>MOLECULE
*****
 123 128 0 0 0
SMALL
GASTEIGER

@<TRIPOS>ATOM
     1 C         -3.68806   3.735565   0.921769 C.3        1 UNL1     0.0009
     2 C         -4.032721   5.379823   1.705771 C.2        1 UNL1     -0.0787
     3 C         -4.435681   6.164038   2.854108 C.2        1 UNL1     -0.0649
     4 C         -4.449516   7.849828   3.009923 C.2        1 UNL1     -0.0542
     5 C         -4.461115   8.931163   3.925159 C.2        1 UNL1     0.0115
     6 C         -4.631512   9.30833   5.422501 C.3        1 UNL1     -0.0348
     7 C         -4.036302   10.390576   3.408791 C.2        1 UNL1     0.2441
     8 O         -4.84881   11.268977   3.154294 O.2        1 UNL1     -0.2702
     9 N         -2.664479   10.677629   3.517658 N.am        1 UNL1     -0.2772
     10 C         -1.995953   10.262475   2.388923 C.2        1 UNL1     0.1049
     11 C         -1.658824   8.986179   2.348496 C.2        1 UNL1     0.0801
     12 C         -2.069895   10.36182   -0.109476 C.ar        1 UNL1     0.0753
     13 C         -1.910553   8.939521   -0.092568 C.ar        1 UNL1     0.0305
     14 C         -1.568007   8.222481   1.133632 C.2        1 UNL1     0.0924
     15 N         -1.673448   8.057675   3.320192 N.pl3        1 UNL1     -0.3170
     16 C         -1.047863   6.869899   2.802422 C.3        1 UNL1     0.1275
     17 N         -1.287421   6.934944   1.313764 N.2        1 UNL1     -0.2557
     18 C         0.456912   7.030063   2.996594 C.3        1 UNL1     0.0016
     19 C         0.732001   7.293833   4.468443 C.3        1 UNL1     0.0026
     20 N         0.219213   6.175553   5.247884 N.3        1 UNL1     -0.3018
     21 C         -1.209809   5.903729   5.079428 C.3        1 UNL1     0.0026
     22 C         -1.462736   5.637044   3.59457 C.3        1 UNL1     0.0016
     23 C         0.689525   6.180988   6.618803 C.3        1 UNL1     0.0012
     24 C         1.580835   7.405873   6.877606 C.3        1 UNL1     -0.0339
     25 C         1.224968   8.089263   8.208167 C.3        1 UNL1     -0.0615
     26 C         3.044769   7.004173   6.829503 C.3        1 UNL1     -0.0615
     27 C         -2.276714   11.050783   -1.302235 C.ar        1 UNL1     0.1347
     28 C         -2.303306   10.432978   -2.539838 C.ar        1 UNL1     0.0342
     29 C         -2.193135   9.026944   -2.494057 C.ar        1 UNL1     0.1435
     30 C         -2.021749   8.319757   -1.303371 C.ar        1 UNL1     0.0774
     31 O         -2.091498   8.290893   -3.622288 O.3        1 UNL1     -0.4436
     32 C         -1.534113   7.040393   -3.190496 C.3        1 UNL1     0.3143
     33 C         -1.87974   6.939819   -1.718545 C.2        1 UNL1     0.2504
     34 C         -2.268391   11.127281   -3.872813 C.3        1 UNL1     -0.0327
     35 O         -2.254902   5.998786   -3.860398 O.2        1 UNL1     -0.4528
     36 C         0.198037   3.130553   -4.265886 C.3        1 UNL1     0.0854
     37 C         1.015298   2.35494   -3.162242 C.3        1 UNL1     0.0236
     38 C         0.814246   0.763931   -3.165638 C.3        1 UNL1     0.1131
     39 C         -0.646601   0.157145   -3.162781 C.3        1 UNL1     0.0200
     40 C         -1.824535   0.795176   -2.168887 C.3        1 UNL1     0.0661
     41 C         -1.663921   1.102932   -0.508435 C.3        1 UNL1     0.0091
     42 C         -2.417745   2.4072   0.538483 C.3        1 UNL1     0.0661
     43 C         -1.918314   11.08905   1.17521 C.2        1 UNL1     0.2131
     44 O         -1.641918   12.272576   1.25011 O.2        1 UNL1     -0.2851
     45 O         -2.467864   12.428879   -1.226401 O.3        1 UNL1     -0.5056
     46 O         -2.026786   5.944301   -1.045362 O.2        1 UNL1     -0.2836
     47 C         -5.017915   3.001251   0.602003 C.3        1 UNL1     -0.0566
     48 O         -2.834064   1.467887   1.607821 O.3        1 UNL1     -0.3909
     49 C         -0.199161   1.031891   -0.138402 C.3        1 UNL1     -0.0577
     50 O         -2.480493   1.876728   -2.799511 O.3        1 UNL1     -0.3910
     51 O         -0.731559   2.363323   -4.997078 O.3        1 UNL1     -0.3753
     52 C         1.126415   3.175898   -1.836108 C.3        1 UNL1     -0.0564
     53 O         1.84548   0.026561   -2.362414 O.3        1 UNL1     -0.4608
     54 C         2.87919   -0.709525   -2.879668 C.2        1 UNL1     0.3042
     55 O         3.411574   -0.578329   -3.981118 O.2        1 UNL1     -0.2512
     56 C         3.417808   -1.740647   -1.929199 C.3        1 UNL1     0.0332
     57 C         -1.041642   -0.156221   -4.680647 C.3        1 UNL1     -0.0567
     58 C         -5.8e-05   7.172172   -3.334857 C.3        1 UNL1     0.0210
     59 C         -1.965221   2.115569   -4.324351 C.3        1 UNL1     0.0372
     60 C         -0.527759   4.335717   -3.780127 C.2        1 UNL1     -0.0208
     61 C         -1.77118   4.752381   -4.023108 C.2        1 UNL1     0.0882
     62 H         -3.390078   4.257073   0.004192 H        1 UNL1     0.0365
     63 H         -3.889705   6.046177   0.852548 H        1 UNL1     0.0576
     64 H         -4.623538   5.701585   3.825682 H        1 UNL1     0.0615
     65 H         -4.334329   8.207405   1.983106 H        1 UNL1     0.0622
     66 H         0.960885   3.499905   -4.965663 H        1 UNL1     0.0645
     67 H         2.064562   2.444274   -3.493336 H        1 UNL1     0.0362
     68 H         1.225987   0.528613   -4.158924 H        1 UNL1     0.0741
     69 H         -0.594764   -0.873418   -2.837726 H        1 UNL1     0.0359
     70 H         -2.562779   -0.029075   -2.194677 H        1 UNL1     0.0600
     71 H         -2.038365   0.144998   -0.097202 H        1 UNL1     0.0348
     72 H         -3.038203   2.349369   -0.36761 H        1 UNL1     0.0602
     73 H         0.149159   4.963232   -3.255479 H        1 UNL1     0.0628
     74 H         -2.541734   4.147364   -4.502106 H        1 UNL1     0.1022
     75 H         -4.202661   10.319672   5.623272 H        1 UNL1     0.0279
     76 H         -5.652294   9.410783   5.783855 H        1 UNL1     0.0279
     77 H         -4.025682   8.679322   6.091097 H        1 UNL1     0.0279
     78 H         -2.271269   10.17321   4.309507 H        1 UNL1     0.1553
     79 H         -1.698428   8.276378   4.299211 H        1 UNL1     0.1484
     80 H         0.960847   6.119   2.651949 H        1 UNL1     0.0317
     81 H         0.844813   7.852765   2.386392 H        1 UNL1     0.0317
     82 H         0.28955   8.244259   4.80137 H        1 UNL1     0.0428
     83 H         1.81039   7.406654   4.58419 H        1 UNL1     0.0428
     84 H         -1.552446   5.011536   5.612723 H        1 UNL1     0.0428
     85 H         -1.830768   6.713279   5.487295 H        1 UNL1     0.0428
     86 H         -2.484849   5.313134   3.528565 H        1 UNL1     0.0317
     87 H         -0.895805   4.755853   3.270245 H        1 UNL1     0.0317
     88 H         -0.185164   6.239341   7.279719 H        1 UNL1     0.0429
     89 H         1.215925   5.249426   6.863484 H        1 UNL1     0.0429
     90 H         1.441889   8.129236   6.065415 H        1 UNL1     0.0308
     91 H         1.882558   7.754037   9.015819 H        1 UNL1     0.0233
     92 H         1.295764   9.175551   8.11556 H        1 UNL1     0.0233
     93 H         0.197081   7.875763   8.5255 H        1 UNL1     0.0233
     94 H         3.652174   7.722502   7.390661 H        1 UNL1     0.0233
     95 H         3.177424   6.020055   7.287627 H        1 UNL1     0.0233
     96 H         3.414943   6.967593   5.801105 H        1 UNL1     0.0233
     97 H         -2.491161   12.186593   -3.786423 H        1 UNL1     0.0280
     98 H         -1.279533   11.065723   -4.345705 H        1 UNL1     0.0280
     99 H         -3.012775   10.671398   -4.545983 H        1 UNL1     0.0280
     100 H         -3.33823   12.690577   -0.982269 H        1 UNL1     0.2922
     101 H         -5.86193   3.620879   0.904253 H        1 UNL1     0.0236
     102 H         -5.069717   2.001583   1.032077 H        1 UNL1     0.0236
     103 H         -5.156577   2.848618   -0.481357 H        1 UNL1     0.0236
     104 H         -2.855031   1.967403   2.447473 H        1 UNL1     0.2098
     105 H         0.476376   1.401104   -0.905959 H        1 UNL1     0.0234
     106 H         0.048568   1.473139   0.826926 H        1 UNL1     0.0234
     107 H         0.0   0.0   0.0 H        1 UNL1     0.0234
     108 H         -2.908754   2.404853   -2.09848 H        1 UNL1     0.2098
     109 H         1.175067   2.52886   -0.949155 H        1 UNL1     0.0234
     110 H         1.973156   3.870687   -1.829698 H        1 UNL1     0.0234
     111 H         0.251068   3.821632   -1.685306 H        1 UNL1     0.0234
     112 H         4.458369   -1.510495   -1.680987 H        1 UNL1     0.0342
     113 H         2.810794   -1.824615   -1.029017 H        1 UNL1     0.0342
     114 H         3.399991   -2.715918   -2.43486 H        1 UNL1     0.0342
     115 H         -2.113369   0.001151   -4.864556 H        1 UNL1     0.0234
     116 H         -0.49203   0.437214   -5.414002 H        1 UNL1     0.0234
     117 H         -0.932687   -1.220151   -4.952906 H        1 UNL1     0.0234
     118 H         0.346874   8.203551   -3.148037 H        1 UNL1     0.0309
     119 H         0.553066   6.48527   -2.686457 H        1 UNL1     0.0309
     120 H         0.345035   6.970478   -4.354826 H        1 UNL1     0.0309
     121 H         -2.511044   3.057581   -4.279101 H        1 UNL1     0.0524
     122 H         -2.597728   1.390992   -4.863759 H        1 UNL1     0.0524
     123 H         -1.778086   1.742245   -3.321503 H        1 UNL1     0.0524
@<TRIPOS>BOND
     1     1     2    1
     2     1    42    1
     3     2     3    2
     4     3     4    1
     5     4     5    2
     6     5     7    1
     7     6    75    1
     8     6    76    1
     9     6    77    1
    10     7     9   am
    11     9    10    1
    12    10    11    2
    13    10    43    1
    14    11    14    1
    15    11    15    1
    16    12    13   ar
    17    12    27   ar
    18    12    43    1
    19    13    14    1
    20    13    30   ar
    21    14    17    2
    22    15    16    1
    23    16    17    1
    24    16    18    1
    25    16    22    1
    26    18    19    1
    27    19    20    1
    28    20    21    1
    29    21    22    1
    30    23    24    1
    31    23    88    1
    32    23    89    1
    33    24    25    1
    34    24    26    1
    35    24    90    1
    36    25    91    1
    37    25    92    1
    38    25    93    1
    39    26    94    1
    40    26    95    1
    41    26    96    1
    42    27    28   ar
    43    28    29   ar
    44    29    30   ar
    45    29    31    1
    46    30    33    1
    47    31    32    1
    48    32    33    1
    49    32    35    1
    50    34    97    1
    51    34    98    1
    52    34    99    1
    53    35    61    1
    54    36    37    1
    55    36    60    1
    56    37    38    1
    57    38    39    1
    58    39    40    1
    59    40    41    1
    60    41    42    1
    61    45   100    1
    62    47   101    1
    63    47   102    1
    64    47   103    1
    65    48   104    1
    66    49   105    1
    67    49   106    1
    68    49   107    1
    69    50   108    1
    70    51    59    1
    71    52   109    1
    72    52   110    1
    73    52   111    1
    74    53    54    1
    75    54    55    2
    76    54    56    1
    77    56   112    1
    78    56   113    1
    79    56   114    1
    80    57   115    1
    81    57   116    1
    82    57   117    1
    83    58   118    1
    84    58   119    1
    85    58   120    1
    86    59   121    1
    87    59   122    1
    88    59   123    1
    89    60    61    2
    90     1    47    1
    91     1    62    1
    92     2    63    1
    93     3    64    1
    94     4    65    1
    95     5     6    1
    96     7     8    2
    97     9    78    1
    98    15    79    1
    99    18    80    1
   100    18    81    1
   101    19    82    1
   102    19    83    1
   103    20    23    1
   104    21    84    1
   105    21    85    1
   106    22    86    1
   107    22    87    1
   108    27    45    1
   109    28    34    1
   110    32    58    1
   111    33    46    2
   112    36    51    1
   113    36    66    1
   114    37    52    1
   115    37    67    1
   116    38    53    1
   117    38    68    1
   118    42    48    1
   119    42    72    1
   120    43    44    2
   121    60    73    1
   122    61    74    1
   123    39    69    1
   124    39    57    1
   125    40    70    1
   126    40    50    1
   127    41    71    1
   128    41    49    1
