@<TRIPOS>MOLECULE
*****
 123 128 0 0 0
SMALL
GASTEIGER

@<TRIPOS>ATOM
     1 C         0.535751   -3.957451   -3.748094 C.3        1 UNL1     0.0009
     2 C         -0.192274   -5.514639   -4.442488 C.2        1 UNL1     -0.0787
     3 C         -0.183557   -6.956634   -4.571411 C.2        1 UNL1     -0.0649
     4 C         -1.320592   -7.938455   -5.352138 C.2        1 UNL1     -0.0542
     5 C         -1.83998   -9.251973   -5.461612 C.2        1 UNL1     0.0115
     6 C         -1.610039   -10.732447   -5.050945 C.3        1 UNL1     -0.0348
     7 C         -3.280289   -9.463966   -6.138042 C.2        1 UNL1     0.2441
     8 O         -3.424357   -9.864388   -7.284965 O.2        1 UNL1     -0.2702
     9 N         -4.364282   -9.409852   -5.244631 N.am        1 UNL1     -0.2772
     10 C         -4.803768   -8.113904   -5.100781 C.2        1 UNL1     0.1049
     11 C         -4.139782   -7.366544   -4.237764 C.2        1 UNL1     0.0801
     12 C         -5.462465   -6.086017   -6.408882 C.ar        1 UNL1     0.0753
     13 C         -4.563211   -5.350785   -5.57259 C.ar        1 UNL1     0.0305
     14 C         -3.972894   -5.945067   -4.375341 C.2        1 UNL1     0.0924
     15 N         -3.228783   -7.716605   -3.313607 N.pl3        1 UNL1     -0.3170
     16 C         -2.940253   -6.552873   -2.518162 C.3        1 UNL1     0.1275
     17 N         -3.207188   -5.38881   -3.44089 N.2        1 UNL1     -0.2557
     18 C         -4.001375   -6.478299   -1.424471 C.3        1 UNL1     0.0016
     19 C         -3.993624   -7.78624   -0.649346 C.3        1 UNL1     0.0026
     20 N         -2.667799   -7.984937   -0.080368 N.3        1 UNL1     -0.3018
     21 C         -1.571798   -8.008866   -1.051233 C.3        1 UNL1     0.0026
     22 C         -1.595517   -6.683876   -1.815258 C.3        1 UNL1     0.0016
     23 C         -2.63355   -9.037064   0.915874 C.3        1 UNL1     0.0012
     24 C         -3.703644   -8.794916   1.991987 C.3        1 UNL1     -0.0339
     25 C         -3.537741   -7.415018   2.649568 C.3        1 UNL1     -0.0615
     26 C         -5.089945   -8.967044   1.395898 C.3        1 UNL1     -0.0615
     27 C         -6.114511   -5.476955   -7.47846 C.ar        1 UNL1     0.1347
     28 C         -5.978198   -4.134644   -7.784514 C.ar        1 UNL1     0.0342
     29 C         -5.050402   -3.442178   -6.977761 C.ar        1 UNL1     0.1435
     30 C         -4.362565   -4.047817   -5.925478 C.ar        1 UNL1     0.0774
     31 O         -4.888023   -2.10492   -7.079654 O.3        1 UNL1     -0.4436
     32 C         -4.267707   -1.719703   -5.843657 C.3        1 UNL1     0.3143
     33 C         -3.591928   -2.975505   -5.331312 C.2        1 UNL1     0.2504
     34 C         -6.830124   -3.359712   -8.750849 C.3        1 UNL1     -0.0327
     35 O         -3.22789   -0.786466   -6.161618 O.2        1 UNL1     -0.4528
     36 C         -2.940415   1.514852   -3.156725 C.3        1 UNL1     0.0854
     37 C         -2.655026   1.153021   -1.648364 C.3        1 UNL1     0.0236
     38 C         -1.403238   1.914035   -0.995961 C.3        1 UNL1     0.1131
     39 C         -0.006741   1.908395   -1.73895 C.3        1 UNL1     0.0200
     40 C         0.579378   0.505667   -2.425432 C.3        1 UNL1     0.0661
     41 C         0.680258   -1.006628   -1.663595 C.3        1 UNL1     0.0091
     42 C         0.529917   -2.699464   -2.354324 C.3        1 UNL1     0.0661
     43 C         -5.746639   -7.496444   -6.045287 C.2        1 UNL1     0.2131
     44 O         -6.743468   -8.0964   -6.404622 O.2        1 UNL1     -0.2851
     45 O         -6.937894   -6.274375   -8.270672 O.3        1 UNL1     -0.5056
     46 O         -2.622168   -3.069681   -4.612598 O.2        1 UNL1     -0.2836
     47 C         1.852723   -3.600906   -4.488663 C.3        1 UNL1     -0.0566
     48 O         1.739865   -3.210759   -1.666053 O.3        1 UNL1     -0.3909
     49 C         -0.14677   -0.971519   -0.397781 C.3        1 UNL1     -0.0577
     50 O         0.092535   0.351256   -3.743334 O.3        1 UNL1     -0.3910
     51 O         -1.970789   2.317263   -3.791857 O.3        1 UNL1     -0.3753
     52 C         -2.96772   -0.347851   -1.340863 C.3        1 UNL1     -0.0564
     53 O         -1.363365   1.829892   0.501923 O.3        1 UNL1     -0.4608
     54 C         -0.295606   2.172917   1.289422 C.2        1 UNL1     0.3042
     55 O         0.886024   1.877254   1.115721 O.2        1 UNL1     -0.2512
     56 C         -0.66228   3.05477   2.44899 C.3        1 UNL1     0.0332
     57 C         0.088209   3.254515   -2.597508 C.3        1 UNL1     -0.0567
     58 C         -5.414707   -1.340991   -4.877997 C.3        1 UNL1     0.0210
     59 C         -2.489999   3.458033   -4.473716 C.3        1 UNL1     0.0372
     60 C         -3.182888   0.348024   -4.048286 C.2        1 UNL1     -0.0208
     61 C         -2.713377   0.079284   -5.267336 C.2        1 UNL1     0.0882
     62 H         -0.263032   -3.38807   -4.238463 H        1 UNL1     0.0365
     63 H         -0.973751   -5.104808   -5.085762 H        1 UNL1     0.0576
     64 H         0.514426   -7.577716   -4.005563 H        1 UNL1     0.0615
     65 H         -1.9107   -7.233658   -5.944183 H        1 UNL1     0.0622
     66 H         -3.884863   2.076501   -3.131913 H        1 UNL1     0.0645
     67 H         -3.49831   1.607153   -1.099551 H        1 UNL1     0.0362
     68 H         -1.764355   2.951742   -1.061386 H        1 UNL1     0.0741
     69 H         0.766891   2.165578   -1.027783 H        1 UNL1     0.0359
     70 H         1.642301   0.786113   -2.554297 H        1 UNL1     0.0600
     71 H         1.707517   -0.948256   -1.253366 H        1 UNL1     0.0348
     72 H         0.750783   -2.042182   -3.207855 H        1 UNL1     0.0602
     73 H         -3.939369   -0.264384   -3.624092 H        1 UNL1     0.0628
     74 H         -1.898967   0.622339   -5.748029 H        1 UNL1     0.1022
     75 H         -1.974028   -10.911739   -4.010561 H        1 UNL1     0.0279
     76 H         -2.151507   -11.483819   -5.621314 H        1 UNL1     0.0279
     77 H         -0.544248   -10.986407   -4.954533 H        1 UNL1     0.0279
     78 H         -4.068041   -9.73647   -4.327221 H        1 UNL1     0.1553
     79 H         -3.116133   -8.652295   -2.969039 H        1 UNL1     0.1484
     80 H         -3.782636   -5.624582   -0.771716 H        1 UNL1     0.0317
     81 H         -4.993218   -6.299052   -1.853154 H        1 UNL1     0.0317
     82 H         -4.283825   -8.636958   -1.283361 H        1 UNL1     0.0428
     83 H         -4.758669   -7.712199   0.124136 H        1 UNL1     0.0428
     84 H         -0.580721   -8.079138   -0.592277 H        1 UNL1     0.0428
     85 H         -1.625365   -8.889195   -1.70657 H        1 UNL1     0.0428
     86 H         -0.706593   -6.681484   -2.418413 H        1 UNL1     0.0317
     87 H         -1.434388   -5.848911   -1.122462 H        1 UNL1     0.0317
     88 H         -2.85118   -9.989258   0.414617 H        1 UNL1     0.0429
     89 H         -1.635693   -9.129991   1.363557 H        1 UNL1     0.0429
     90 H         -3.613506   -9.564513   2.76775 H        1 UNL1     0.0308
     91 H         -3.870655   -6.614037   1.982709 H        1 UNL1     0.0233
     92 H         -4.10203   -7.361839   3.583569 H        1 UNL1     0.0233
     93 H         -2.494443   -7.199182   2.909915 H        1 UNL1     0.0233
     94 H         -5.634507   -9.754882   1.927499 H        1 UNL1     0.0233
     95 H         -5.657896   -8.037913   1.496454 H        1 UNL1     0.0233
     96 H         -5.038478   -9.236486   0.337257 H        1 UNL1     0.0233
     97 H         -7.371149   -2.554823   -8.262305 H        1 UNL1     0.0280
     98 H         -6.232982   -2.884693   -9.540174 H        1 UNL1     0.0280
     99 H         -7.564515   -4.035246   -9.219272 H        1 UNL1     0.0280
     100 H         -6.539834   -6.577776   -9.067615 H        1 UNL1     0.2922
     101 H         1.89248   -2.527345   -4.671811 H        1 UNL1     0.0236
     102 H         2.000847   -4.177254   -5.401277 H        1 UNL1     0.0236
     103 H         2.743737   -3.813216   -3.874487 H        1 UNL1     0.0236
     104 H         2.052445   -2.510752   -1.060038 H        1 UNL1     0.2098
     105 H         -1.213687   -1.109217   -0.554428 H        1 UNL1     0.0234
     106 H         0.206674   -1.630081   0.395504 H        1 UNL1     0.0234
     107 H         0.0   0.0   0.0 H        1 UNL1     0.0234
     108 H         -0.836422   0.652579   -3.746596 H        1 UNL1     0.2098
     109 H         -3.892394   -0.469477   -0.759575 H        1 UNL1     0.0234
     110 H         -3.016   -0.970541   -2.24068 H        1 UNL1     0.0234
     111 H         -2.17493   -0.811288   -0.738653 H        1 UNL1     0.0234
     112 H         0.137647   3.77813   2.633958 H        1 UNL1     0.0342
     113 H         -1.615952   3.557587   2.295596 H        1 UNL1     0.0342
     114 H         -0.758834   2.423485   3.343037 H        1 UNL1     0.0342
     115 H         1.051822   3.76275   -2.454907 H        1 UNL1     0.0234
     116 H         -0.049786   3.107361   -3.670519 H        1 UNL1     0.0234
     117 H         -0.616409   4.037258   -2.267708 H        1 UNL1     0.0234
     118 H         -6.363607   -1.837535   -5.146398 H        1 UNL1     0.0309
     119 H         -5.182348   -1.555168   -3.82998 H        1 UNL1     0.0309
     120 H         -5.666104   -0.275611   -4.92125 H        1 UNL1     0.0309
     121 H         -3.077912   3.098343   -5.317717 H        1 UNL1     0.0524
     122 H         -3.158968   4.058571   -3.835067 H        1 UNL1     0.0524
     123 H         -1.677641   4.088334   -4.824273 H        1 UNL1     0.0524
@<TRIPOS>BOND
     1     1     2    1
     2     1    42    1
     3     2     3    2
     4     3     4    1
     5     4     5    2
     6     5     7    1
     7     6    75    1
     8     6    76    1
     9     6    77    1
    10     7     9   am
    11     9    10    1
    12    10    11    2
    13    10    43    1
    14    11    14    1
    15    11    15    1
    16    12    13   ar
    17    12    27   ar
    18    12    43    1
    19    13    14    1
    20    13    30   ar
    21    14    17    2
    22    15    16    1
    23    16    17    1
    24    16    18    1
    25    16    22    1
    26    18    19    1
    27    19    20    1
    28    20    21    1
    29    21    22    1
    30    23    24    1
    31    23    88    1
    32    23    89    1
    33    24    25    1
    34    24    26    1
    35    24    90    1
    36    25    91    1
    37    25    92    1
    38    25    93    1
    39    26    94    1
    40    26    95    1
    41    26    96    1
    42    27    28   ar
    43    28    29   ar
    44    29    30   ar
    45    29    31    1
    46    30    33    1
    47    31    32    1
    48    32    33    1
    49    32    35    1
    50    34    97    1
    51    34    98    1
    52    34    99    1
    53    35    61    1
    54    36    37    1
    55    36    60    1
    56    37    38    1
    57    38    39    1
    58    39    40    1
    59    40    41    1
    60    41    42    1
    61    45   100    1
    62    47   101    1
    63    47   102    1
    64    47   103    1
    65    48   104    1
    66    49   105    1
    67    49   106    1
    68    49   107    1
    69    50   108    1
    70    51    59    1
    71    52   109    1
    72    52   110    1
    73    52   111    1
    74    53    54    1
    75    54    55    2
    76    54    56    1
    77    56   112    1
    78    56   113    1
    79    56   114    1
    80    57   115    1
    81    57   116    1
    82    57   117    1
    83    58   118    1
    84    58   119    1
    85    58   120    1
    86    59   121    1
    87    59   122    1
    88    59   123    1
    89    60    61    2
    90     1    47    1
    91     1    62    1
    92     2    63    1
    93     3    64    1
    94     4    65    1
    95     5     6    1
    96     7     8    2
    97     9    78    1
    98    15    79    1
    99    18    80    1
   100    18    81    1
   101    19    82    1
   102    19    83    1
   103    20    23    1
   104    21    84    1
   105    21    85    1
   106    22    86    1
   107    22    87    1
   108    27    45    1
   109    28    34    1
   110    32    58    1
   111    33    46    2
   112    36    51    1
   113    36    66    1
   114    37    52    1
   115    37    67    1
   116    38    53    1
   117    38    68    1
   118    42    48    1
   119    42    72    1
   120    43    44    2
   121    60    73    1
   122    61    74    1
   123    39    69    1
   124    39    57    1
   125    40    70    1
   126    40    50    1
   127    41    71    1
   128    41    49    1
