@<TRIPOS>MOLECULE
*****
 123 128 0 0 0
SMALL
GASTEIGER

@<TRIPOS>ATOM
     1 C         5.156447   1.768601   0.531392 C.3        1 UNL1     0.0009
     2 C         6.595824   2.582274   -0.307159 C.2        1 UNL1     -0.0787
     3 C         7.882756   2.490651   -0.964012 C.2        1 UNL1     -0.0649
     4 C         8.760505   3.730879   -1.710836 C.2        1 UNL1     -0.0542
     5 C         9.785937   4.029596   -2.641608 C.2        1 UNL1     0.0115
     6 C         10.92274   3.410517   -3.500527 C.3        1 UNL1     -0.0348
     7 C         9.879546   5.514487   -3.244372 C.2        1 UNL1     0.2441
     8 O         10.697408   6.338663   -2.859197 O.2        1 UNL1     -0.2702
     9 N         9.136773   5.720866   -4.419893 N.am        1 UNL1     -0.2772
     10 C         7.85032   6.101712   -4.114415 C.2        1 UNL1     0.1049
     11 C         7.006436   5.126287   -3.830463 C.2        1 UNL1     0.0801
     12 C         6.535507   7.700165   -2.709584 C.ar        1 UNL1     0.0753
     13 C         5.777884   6.568265   -2.269791 C.ar        1 UNL1     0.0305
     14 C         5.904655   5.264395   -2.917019 C.2        1 UNL1     0.0924
     15 N         7.135557   3.79815   -3.991415 N.pl3        1 UNL1     -0.3170
     16 C         5.865949   3.193206   -3.687453 C.3        1 UNL1     0.1275
     17 N         5.218786   4.143819   -2.710091 N.2        1 UNL1     -0.2557
     18 C         5.021809   3.251469   -4.956994 C.3        1 UNL1     0.0016
     19 C         5.787401   2.572784   -6.081647 C.3        1 UNL1     0.0026
     20 N         6.060392   1.194982   -5.696724 N.3        1 UNL1     -0.3018
     21 C         6.815627   1.035086   -4.452368 C.3        1 UNL1     0.0026
     22 C         6.026199   1.720119   -3.335484 C.3        1 UNL1     0.0016
     23 C         6.516035   0.37956   -6.80493 C.3        1 UNL1     0.0012
     24 C         5.368569   0.127472   -7.795652 C.3        1 UNL1     -0.0339
     25 C         5.398282   1.133172   -8.958297 C.3        1 UNL1     -0.0615
     26 C         5.41728   -1.306025   -8.295145 C.3        1 UNL1     -0.0615
     27 C         6.321911   8.965895   -2.168823 C.ar        1 UNL1     0.1347
     28 C         5.355018   9.22957   -1.215071 C.ar        1 UNL1     0.0342
     29 C         4.654825   8.091341   -0.761939 C.ar        1 UNL1     0.1435
     30 C         4.883019   6.811266   -1.268451 C.ar        1 UNL1     0.0774
     31 O         3.607386   8.198928   0.084409 O.3        1 UNL1     -0.4436
     32 C         2.891728   6.963505   -0.065377 C.3        1 UNL1     0.3143
     33 C         3.912767   5.975606   -0.592395 C.2        1 UNL1     0.2504
     34 C         4.899553   10.592939   -0.774758 C.3        1 UNL1     -0.0327
     35 O         2.523588   6.522615   1.247384 O.2        1 UNL1     -0.4528
     36 C         -0.708728   4.578188   0.823799 C.3        1 UNL1     0.0854
     37 C         -1.002591   3.31825   -0.078268 C.3        1 UNL1     0.0236
     38 C         -1.603576   2.053158   0.702823 C.3        1 UNL1     0.1131
     39 C         -0.884867   1.522453   2.008227 C.3        1 UNL1     0.0200
     40 C         0.776569   1.383527   2.060821 C.3        1 UNL1     0.0661
     41 C         1.74726   0.621004   0.897237 C.3        1 UNL1     0.0091
     42 C         3.457299   0.991618   0.346043 C.3        1 UNL1     0.0661
     43 C         7.494261   7.498626   -3.824229 C.2        1 UNL1     0.2131
     44 O         7.895559   8.3998   -4.538079 O.2        1 UNL1     -0.2851
     45 O         7.133191   10.005221   -2.619449 O.3        1 UNL1     -0.5056
     46 O         3.932707   4.771877   -0.463971 O.2        1 UNL1     -0.2836
     47 C         5.544398   1.337745   1.971475 C.3        1 UNL1     -0.0566
     48 O         3.910984   -0.417832   0.428106 O.3        1 UNL1     -0.3909
     49 C         0.922781   0.387621   -0.349062 C.3        1 UNL1     -0.0577
     50 O         1.369049   2.602984   2.460341 O.3        1 UNL1     -0.3910
     51 O         -0.841851   4.385131   2.213921 O.3        1 UNL1     -0.3753
     52 C         0.050601   3.164382   -1.22372 C.3        1 UNL1     -0.0564
     53 O         -2.195612   1.013618   -0.203365 O.3        1 UNL1     -0.4608
     54 C         -2.414971   -0.29795   0.127694 C.2        1 UNL1     0.3042
     55 O         -1.835646   -1.287692   -0.317986 O.2        1 UNL1     -0.2512
     56 C         -3.451199   -0.482444   1.199565 C.3        1 UNL1     0.0332
     57 C         -1.617466   2.185921   3.265718 C.3        1 UNL1     -0.0567
     58 C         1.823215   7.206501   -1.156598 C.3        1 UNL1     0.0210
     59 C         -1.195893   5.554846   2.950322 C.3        1 UNL1     0.0372
     60 C         0.619303   5.213102   0.603847 C.2        1 UNL1     -0.0208
     61 C         1.524321   5.650213   1.480556 C.2        1 UNL1     0.0882
     62 H         4.675945   2.750665   0.617308 H        1 UNL1     0.0365
     63 H         6.324579   3.634772   -0.201586 H        1 UNL1     0.0576
     64 H         8.345865   1.526113   -1.183797 H        1 UNL1     0.0615
     65 H         8.267292   4.643586   -1.365596 H        1 UNL1     0.0622
     66 H         -1.45419   5.322347   0.509855 H        1 UNL1     0.0645
     67 H         -1.865057   3.625386   -0.695018 H        1 UNL1     0.0362
     68 H         -2.55486   2.485485   1.048763 H        1 UNL1     0.0741
     69 H         -1.213664   0.509626   2.199226 H        1 UNL1     0.0359
     70 H         0.884807   0.721834   2.94145 H        1 UNL1     0.0600
     71 H         1.791966   -0.400857   1.322395 H        1 UNL1     0.0348
     72 H         3.342547   1.477369   1.325938 H        1 UNL1     0.0602
     73 H         0.743695   5.412964   -0.431445 H        1 UNL1     0.0628
     74 H         1.500096   5.437272   2.549811 H        1 UNL1     0.1022
     75 H         10.970614   2.305113   -3.34945 H        1 UNL1     0.0279
     76 H         10.81637   3.495073   -4.579696 H        1 UNL1     0.0279
     77 H         11.92425   3.718596   -3.166211 H        1 UNL1     0.0279
     78 H         9.081988   4.851759   -4.946893 H        1 UNL1     0.1553
     79 H         7.806884   3.374118   -4.604972 H        1 UNL1     0.1484
     80 H         4.061178   2.756266   -4.770638 H        1 UNL1     0.0317
     81 H         4.792922   4.287857   -5.227478 H        1 UNL1     0.0317
     82 H         6.71763   3.108343   -6.321987 H        1 UNL1     0.0428
     83 H         5.168323   2.627246   -6.977653 H        1 UNL1     0.0428
     84 H         6.937985   -0.008008   -4.144479 H        1 UNL1     0.0428
     85 H         7.844927   1.407481   -4.548175 H        1 UNL1     0.0428
     86 H         6.537226   1.469968   -2.424296 H        1 UNL1     0.0317
     87 H         5.047838   1.238282   -3.218271 H        1 UNL1     0.0317
     88 H         7.313592   0.925647   -7.325494 H        1 UNL1     0.0429
     89 H         6.949971   -0.565182   -6.452886 H        1 UNL1     0.0429
     90 H         4.411564   0.229243   -7.270299 H        1 UNL1     0.0308
     91 H         6.351172   1.093208   -9.494492 H        1 UNL1     0.0233
     92 H         4.583707   0.937198   -9.65949 H        1 UNL1     0.0233
     93 H         5.267363   2.167836   -8.618938 H        1 UNL1     0.0233
     94 H         4.727429   -1.436688   -9.135901 H        1 UNL1     0.0233
     95 H         6.42512   -1.545514   -8.645666 H        1 UNL1     0.0233
     96 H         5.140199   -2.01259   -7.50777 H        1 UNL1     0.0233
     97 H         4.101234   10.53844   -0.040628 H        1 UNL1     0.0280
     98 H         5.706672   11.165289   -0.29912 H        1 UNL1     0.0280
     99 H         4.529725   11.15775   -1.646143 H        1 UNL1     0.0280
     100 H         6.66541   10.754344   -2.944439 H        1 UNL1     0.2922
     101 H         4.679813   0.899592   2.469642 H        1 UNL1     0.0236
     102 H         5.98783   2.143709   2.555233 H        1 UNL1     0.0236
     103 H         6.303878   0.538136   1.974076 H        1 UNL1     0.0236
     104 H         4.324866   -0.543924   1.304333 H        1 UNL1     0.2098
     105 H         0.710538   1.286765   -0.922042 H        1 UNL1     0.0234
     106 H         1.299964   -0.397554   -1.004164 H        1 UNL1     0.0234
     107 H         0.0   -0.0   0.0 H        1 UNL1     0.0234
     108 H         1.170317   3.262574   1.768087 H        1 UNL1     0.2098
     109 H         1.073186   3.05426   -0.836545 H        1 UNL1     0.0234
     110 H         -0.173704   2.337748   -1.906441 H        1 UNL1     0.0234
     111 H         0.072813   4.048613   -1.874557 H        1 UNL1     0.0234
     112 H         -3.573807   -1.547348   1.41932 H        1 UNL1     0.0342
     113 H         -3.211084   0.077621   2.10207 H        1 UNL1     0.0342
     114 H         -4.409976   -0.10463   0.818554 H        1 UNL1     0.0342
     115 H         -2.680872   1.913097   3.309591 H        1 UNL1     0.0234
     116 H         -1.171635   1.925231   4.227656 H        1 UNL1     0.0234
     117 H         -1.681963   3.286084   3.207219 H        1 UNL1     0.0234
     118 H         0.917298   7.688919   -0.749667 H        1 UNL1     0.0309
     119 H         2.196146   7.797706   -1.998977 H        1 UNL1     0.0309
     120 H         1.44142   6.273856   -1.586148 H        1 UNL1     0.0309
     121 H         -0.395135   6.282089   2.818942 H        1 UNL1     0.0524
     122 H         -2.126998   6.015934   2.580891 H        1 UNL1     0.0524
     123 H         -1.314994   5.314534   4.003013 H        1 UNL1     0.0524
@<TRIPOS>BOND
     1     1     2    1
     2     1    42    1
     3     2     3    2
     4     3     4    1
     5     4     5    2
     6     5     7    1
     7     6    75    1
     8     6    76    1
     9     6    77    1
    10     7     9   am
    11     9    10    1
    12    10    11    2
    13    10    43    1
    14    11    14    1
    15    11    15    1
    16    12    13   ar
    17    12    27   ar
    18    12    43    1
    19    13    14    1
    20    13    30   ar
    21    14    17    2
    22    15    16    1
    23    16    17    1
    24    16    18    1
    25    16    22    1
    26    18    19    1
    27    19    20    1
    28    20    21    1
    29    21    22    1
    30    23    24    1
    31    23    88    1
    32    23    89    1
    33    24    25    1
    34    24    26    1
    35    24    90    1
    36    25    91    1
    37    25    92    1
    38    25    93    1
    39    26    94    1
    40    26    95    1
    41    26    96    1
    42    27    28   ar
    43    28    29   ar
    44    29    30   ar
    45    29    31    1
    46    30    33    1
    47    31    32    1
    48    32    33    1
    49    32    35    1
    50    34    97    1
    51    34    98    1
    52    34    99    1
    53    35    61    1
    54    36    37    1
    55    36    60    1
    56    37    38    1
    57    38    39    1
    58    39    40    1
    59    40    41    1
    60    41    42    1
    61    45   100    1
    62    47   101    1
    63    47   102    1
    64    47   103    1
    65    48   104    1
    66    49   105    1
    67    49   106    1
    68    49   107    1
    69    50   108    1
    70    51    59    1
    71    52   109    1
    72    52   110    1
    73    52   111    1
    74    53    54    1
    75    54    55    2
    76    54    56    1
    77    56   112    1
    78    56   113    1
    79    56   114    1
    80    57   115    1
    81    57   116    1
    82    57   117    1
    83    58   118    1
    84    58   119    1
    85    58   120    1
    86    59   121    1
    87    59   122    1
    88    59   123    1
    89    60    61    2
    90     1    47    1
    91     1    62    1
    92     2    63    1
    93     3    64    1
    94     4    65    1
    95     5     6    1
    96     7     8    2
    97     9    78    1
    98    15    79    1
    99    18    80    1
   100    18    81    1
   101    19    82    1
   102    19    83    1
   103    20    23    1
   104    21    84    1
   105    21    85    1
   106    22    86    1
   107    22    87    1
   108    27    45    1
   109    28    34    1
   110    32    58    1
   111    33    46    2
   112    36    51    1
   113    36    66    1
   114    37    52    1
   115    37    67    1
   116    38    53    1
   117    38    68    1
   118    42    48    1
   119    42    72    1
   120    43    44    2
   121    60    73    1
   122    61    74    1
   123    39    69    1
   124    39    57    1
   125    40    70    1
   126    40    50    1
   127    41    71    1
   128    41    49    1
