@<TRIPOS>MOLECULE
*****
 123 128 0 0 0
SMALL
GASTEIGER

@<TRIPOS>ATOM
     1 C         5.16687   1.750047   0.489957 C.3        1 UNL1     0.0009
     2 C         6.603035   2.556796   -0.360705 C.2        1 UNL1     -0.0787
     3 C         7.884701   2.459153   -1.026921 C.2        1 UNL1     -0.0649
     4 C         8.761543   3.694738   -1.782457 C.2        1 UNL1     -0.0542
     5 C         9.781152   3.987937   -2.721344 C.2        1 UNL1     0.0115
     6 C         10.909209   3.363055   -3.587561 C.3        1 UNL1     -0.0348
     7 C         9.875872   5.471399   -3.327446 C.2        1 UNL1     0.2441
     8 O         10.699668   6.293158   -2.949826 O.2        1 UNL1     -0.2702
     9 N         9.125174   5.678508   -4.497792 N.am        1 UNL1     -0.2772
     10 C         7.842467   6.064749   -4.183463 C.2        1 UNL1     0.1049
     11 C         6.997049   5.09302   -3.891512 C.2        1 UNL1     0.0801
     12 C         6.544146   7.670632   -2.771785 C.ar        1 UNL1     0.0753
     13 C         5.785555   6.542379   -2.324356 C.ar        1 UNL1     0.0305
     14 C         5.902608   5.2369   -2.970169 C.2        1 UNL1     0.0924
     15 N         7.119972   3.764123   -4.051037 N.pl3        1 UNL1     -0.3170
     16 C         5.850388   3.164516   -3.736581 C.3        1 UNL1     0.1275
     17 N         5.214081   4.11929   -2.75615 N.2        1 UNL1     -0.2557
     18 C         4.99707   3.223728   -4.999928 C.3        1 UNL1     0.0016
     19 C         5.751731   2.540173   -6.129011 C.3        1 UNL1     0.0026
     20 N         6.022384   1.162031   -5.743655 N.3        1 UNL1     -0.3018
     21 C         6.786229   1.001478   -4.504651 C.3        1 UNL1     0.0026
     22 C         6.0077   1.691457   -3.383172 C.3        1 UNL1     0.0016
     23 C         6.466714   0.34294   -6.853747 C.3        1 UNL1     0.0012
     24 C         5.310984   0.09344   -7.835477 C.3        1 UNL1     -0.0339
     25 C         5.346001   1.085943   -9.009261 C.3        1 UNL1     -0.0615
     26 C         5.340301   -1.345907   -8.319419 C.3        1 UNL1     -0.0615
     27 C         6.339337   8.938112   -2.231723 C.ar        1 UNL1     0.1347
     28 C         5.380551   9.207119   -1.271299 C.ar        1 UNL1     0.0342
     29 C         4.679462   8.072344   -0.810946 C.ar        1 UNL1     0.1435
     30 C         4.89907   6.790525   -1.316842 C.ar        1 UNL1     0.0774
     31 O         3.638749   8.18538   0.042954 O.3        1 UNL1     -0.4436
     32 C         2.917353   6.952406   -0.099305 C.3        1 UNL1     0.3143
     33 C         3.930726   5.95973   -0.632111 C.2        1 UNL1     0.2504
     34 C         4.933503   10.572974   -0.830063 C.3        1 UNL1     -0.0327
     35 O         2.557313   6.515227   1.216938 O.2        1 UNL1     -0.4528
     36 C         -0.685355   4.582278   0.820828 C.3        1 UNL1     0.0854
     37 C         -0.990647   3.32187   -0.076776 C.3        1 UNL1     0.0236
     38 C         -1.590574   2.060437   0.711018 C.3        1 UNL1     0.1131
     39 C         -0.864196   1.529325   2.012004 C.3        1 UNL1     0.0200
     40 C         0.797051   1.384217   2.052521 C.3        1 UNL1     0.0661
     41 C         1.756199   0.615982   0.883137 C.3        1 UNL1     0.0091
     42 C         3.463481   0.979161   0.31861 C.3        1 UNL1     0.0661
     43 C         7.493833   7.463507   -3.893147 C.2        1 UNL1     0.2131
     44 O         7.893209   8.361898   -4.611569 O.2        1 UNL1     -0.2851
     45 O         7.151156   9.973569   -2.690217 O.3        1 UNL1     -0.5056
     46 O         3.947088   4.756163   -0.501681 O.2        1 UNL1     -0.2836
     47 C         5.563878   1.320269   1.927892 C.3        1 UNL1     -0.0566
     48 O         3.912455   -0.431846   0.399831 O.3        1 UNL1     -0.3909
     49 C         0.921617   0.383517   -0.356591 C.3        1 UNL1     -0.0577
     50 O         1.397066   2.602131   2.445449 O.3        1 UNL1     -0.3910
     51 O         -0.808878   4.392179   2.212242 O.3        1 UNL1     -0.3753
     52 C         0.053425   3.162004   -1.229731 C.3        1 UNL1     -0.0564
     53 O         -2.19323   1.021544   -0.188889 O.3        1 UNL1     -0.4608
     54 C         -2.427163   -0.285366   0.15051 C.2        1 UNL1     0.3042
     55 O         -1.857959   -1.28422   -0.287822 O.2        1 UNL1     -0.2512
     56 C         -3.46674   -0.451589   1.222127 C.3        1 UNL1     0.0332
     57 C         -1.584936   2.197773   3.273704 C.3        1 UNL1     -0.0567
     58 C         1.84169   7.197511   -1.183004 C.3        1 UNL1     0.0210
     59 C         -1.122117   5.570894   2.952768 C.3        1 UNL1     0.0372
     60 C         0.643387   5.211783   0.589893 C.2        1 UNL1     -0.0208
     61 C         1.556529   5.647018   1.45908 C.2        1 UNL1     0.0882
     62 H         4.69072   2.734068   0.577675 H        1 UNL1     0.0365
     63 H         6.336545   3.610495   -0.255009 H        1 UNL1     0.0576
     64 H         8.342531   1.492487   -1.248407 H        1 UNL1     0.0615
     65 H         8.274345   4.609909   -1.435204 H        1 UNL1     0.0622
     66 H         -1.43032   5.328693   0.511089 H        1 UNL1     0.0645
     67 H         -1.856507   3.631173   -0.68766 H        1 UNL1     0.0362
     68 H         -2.537629   2.496964   1.06323 H        1 UNL1     0.0741
     69 H         -1.195376   0.518085   2.207252 H        1 UNL1     0.0359
     70 H         0.909333   0.723675   2.933507 H        1 UNL1     0.0600
     71 H         1.800214   -0.405289   1.309782 H        1 UNL1     0.0348
     72 H         3.357837   1.46707   1.298457 H        1 UNL1     0.0602
     73 H         0.76084   5.409347   -0.44665 H        1 UNL1     0.0628
     74 H         1.539441   5.436057   2.528865 H        1 UNL1     0.1022
     75 H         10.951964   2.257333   -3.437271 H        1 UNL1     0.0279
     76 H         10.796624   3.448704   -4.666013 H        1 UNL1     0.0279
     77 H         11.914441   3.665489   -3.259319 H        1 UNL1     0.0279
     78 H         9.063207   4.808686   -5.022813 H        1 UNL1     0.1553
     79 H         7.785123   3.336477   -4.668795 H        1 UNL1     0.1484
     80 H         4.035992   2.732486   -4.805564 H        1 UNL1     0.0317
     81 H         4.770084   4.260494   -5.270564 H        1 UNL1     0.0317
     82 H         6.682159   3.071789   -6.377204 H        1 UNL1     0.0428
     83 H         5.126227   2.595392   -7.020496 H        1 UNL1     0.0428
     84 H         6.906943   -0.041525   -4.19581 H        1 UNL1     0.0428
     85 H         7.816185   1.369813   -4.608758 H        1 UNL1     0.0428
     86 H         6.524533   1.440986   -2.475352 H        1 UNL1     0.0317
     87 H         5.028429   1.213527   -3.257841 H        1 UNL1     0.0317
     88 H         7.262434   0.88509   -7.381191 H        1 UNL1     0.0429
     89 H         6.899693   -0.602812   -6.50324 H        1 UNL1     0.0429
     90 H         4.358119   0.212119   -7.306159 H        1 UNL1     0.0308
     91 H         6.298982   1.035563   -9.544417 H        1 UNL1     0.0233
     92 H         4.530899   0.88594   -9.708701 H        1 UNL1     0.0233
     93 H         5.219719   2.124931   -8.681553 H        1 UNL1     0.0233
     94 H         4.645531   -1.477334   -9.155994 H        1 UNL1     0.0233
     95 H         6.343742   -1.601447   -8.671223 H        1 UNL1     0.0233
     96 H         5.057856   -2.040418   -7.523273 H        1 UNL1     0.0233
     97 H         4.134161   10.52292   -0.09673 H        1 UNL1     0.0280
     98 H         5.743862   11.139622   -0.35311 H        1 UNL1     0.0280
     99 H         4.568152   11.14102   -1.701233 H        1 UNL1     0.0280
     100 H         6.683816   10.724665   -3.011264 H        1 UNL1     0.2922
     101 H         4.698229   0.897679   2.437523 H        1 UNL1     0.0236
     102 H         6.025758   2.122205   2.502827 H        1 UNL1     0.0236
     103 H         6.311167   0.509251   1.92627 H        1 UNL1     0.0236
     104 H         4.332037   -0.558047   1.273327 H        1 UNL1     0.2098
     105 H         0.708511   1.282443   -0.929591 H        1 UNL1     0.0234
     106 H         1.290967   -0.404232   -1.013066 H        1 UNL1     0.0234
     107 H         0.0   -0.0   0.0 H        1 UNL1     0.0234
     108 H         1.203472   3.258853   1.749026 H        1 UNL1     0.2098
     109 H         1.07988   3.061095   -0.850364 H        1 UNL1     0.0234
     110 H         -0.172384   2.327409   -1.902192 H        1 UNL1     0.0234
     111 H         0.065342   4.039766   -1.889532 H        1 UNL1     0.0234
     112 H         -3.589758   -1.512564   1.45992 H        1 UNL1     0.0342
     113 H         -3.229644   0.124113   2.115545 H        1 UNL1     0.0342
     114 H         -4.424404   -0.080748   0.831586 H        1 UNL1     0.0342
     115 H         -2.654478   1.949199   3.31215 H        1 UNL1     0.0234
     116 H         -1.148038   1.917877   4.234343 H        1 UNL1     0.0234
     117 H         -1.623849   3.299631   3.22538 H        1 UNL1     0.0234
     118 H         0.940019   7.682656   -0.769929 H        1 UNL1     0.0309
     119 H         2.210151   7.787115   -2.028466 H        1 UNL1     0.0309
     120 H         1.454314   6.265596   -1.609126 H        1 UNL1     0.0309
     121 H         -0.30131   6.274317   2.815554 H        1 UNL1     0.0524
     122 H         -2.042182   6.059782   2.591514 H        1 UNL1     0.0524
     123 H         -1.239623   5.332845   4.006153 H        1 UNL1     0.0524
@<TRIPOS>BOND
     1     1     2    1
     2     1    42    1
     3     2     3    2
     4     3     4    1
     5     4     5    2
     6     5     7    1
     7     6    75    1
     8     6    76    1
     9     6    77    1
    10     7     9   am
    11     9    10    1
    12    10    11    2
    13    10    43    1
    14    11    14    1
    15    11    15    1
    16    12    13   ar
    17    12    27   ar
    18    12    43    1
    19    13    14    1
    20    13    30   ar
    21    14    17    2
    22    15    16    1
    23    16    17    1
    24    16    18    1
    25    16    22    1
    26    18    19    1
    27    19    20    1
    28    20    21    1
    29    21    22    1
    30    23    24    1
    31    23    88    1
    32    23    89    1
    33    24    25    1
    34    24    26    1
    35    24    90    1
    36    25    91    1
    37    25    92    1
    38    25    93    1
    39    26    94    1
    40    26    95    1
    41    26    96    1
    42    27    28   ar
    43    28    29   ar
    44    29    30   ar
    45    29    31    1
    46    30    33    1
    47    31    32    1
    48    32    33    1
    49    32    35    1
    50    34    97    1
    51    34    98    1
    52    34    99    1
    53    35    61    1
    54    36    37    1
    55    36    60    1
    56    37    38    1
    57    38    39    1
    58    39    40    1
    59    40    41    1
    60    41    42    1
    61    45   100    1
    62    47   101    1
    63    47   102    1
    64    47   103    1
    65    48   104    1
    66    49   105    1
    67    49   106    1
    68    49   107    1
    69    50   108    1
    70    51    59    1
    71    52   109    1
    72    52   110    1
    73    52   111    1
    74    53    54    1
    75    54    55    2
    76    54    56    1
    77    56   112    1
    78    56   113    1
    79    56   114    1
    80    57   115    1
    81    57   116    1
    82    57   117    1
    83    58   118    1
    84    58   119    1
    85    58   120    1
    86    59   121    1
    87    59   122    1
    88    59   123    1
    89    60    61    2
    90     1    47    1
    91     1    62    1
    92     2    63    1
    93     3    64    1
    94     4    65    1
    95     5     6    1
    96     7     8    2
    97     9    78    1
    98    15    79    1
    99    18    80    1
   100    18    81    1
   101    19    82    1
   102    19    83    1
   103    20    23    1
   104    21    84    1
   105    21    85    1
   106    22    86    1
   107    22    87    1
   108    27    45    1
   109    28    34    1
   110    32    58    1
   111    33    46    2
   112    36    51    1
   113    36    66    1
   114    37    52    1
   115    37    67    1
   116    38    53    1
   117    38    68    1
   118    42    48    1
   119    42    72    1
   120    43    44    2
   121    60    73    1
   122    61    74    1
   123    39    69    1
   124    39    57    1
   125    40    70    1
   126    40    50    1
   127    41    71    1
   128    41    49    1
