@<TRIPOS>MOLECULE
*****
 123 128 0 0 0
SMALL
GASTEIGER

@<TRIPOS>ATOM
     1 C         -1.380111   -4.28323   -2.717686 C.3        1 UNL1     0.0009
     2 C         -0.760469   -5.856271   -3.478359 C.2        1 UNL1     -0.0787
     3 C         -0.169847   -6.564151   -4.594655 C.2        1 UNL1     -0.0649
     4 C         0.323763   -8.182433   -4.656858 C.2        1 UNL1     -0.0542
     5 C         1.137925   -9.122689   -5.335192 C.2        1 UNL1     0.0115
     6 C         2.018696   -9.344118   -6.595563 C.3        1 UNL1     -0.0348
     7 C         1.494717   -10.508748   -4.608192 C.2        1 UNL1     0.2441
     8 O         0.940488   -11.564825   -4.880324 O.2        1 UNL1     -0.2702
     9 N         2.662852   -10.480266   -3.826654 N.am        1 UNL1     -0.2772
     10 C         2.373432   -10.070932   -2.545247 C.2        1 UNL1     0.1049
     11 C         2.292943   -8.766479   -2.355128 C.2        1 UNL1     0.0801
     12 C         0.810928   -10.484477   -0.636086 C.ar        1 UNL1     0.0753
     13 C         0.596462   -9.06963   -0.607447 C.ar        1 UNL1     0.0305
     14 C         1.431738   -8.15332   -1.380584 C.2        1 UNL1     0.0924
     15 N         2.652362   -7.752334   -3.160643 N.pl3        1 UNL1     -0.3170
     16 C         2.517791   -6.52954   -2.414372 C.3        1 UNL1     0.1275
     17 N         1.441147   -6.823462   -1.398414 N.2        1 UNL1     -0.2557
     18 C         3.807451   -6.339312   -1.621723 C.3        1 UNL1     0.0016
     19 C         4.980205   -6.35855   -2.589125 C.3        1 UNL1     0.0026
     20 N         4.801114   -5.290259   -3.562629 N.3        1 UNL1     -0.3018
     21 C         3.557132   -5.352934   -4.332661 C.3        1 UNL1     0.0026
     22 C         2.39237   -5.327697   -3.341406 C.3        1 UNL1     0.0016
     23 C         5.996259   -5.029475   -4.339973 C.3        1 UNL1     0.0012
     24 C         6.559056   -6.337584   -4.917785 C.3        1 UNL1     -0.0339
     25 C         5.725112   -6.829459   -6.112211 C.3        1 UNL1     -0.0615
     26 C         8.01949   -6.155381   -5.292905 C.3        1 UNL1     -0.0615
     27 C         0.091431   -11.340488   0.194389 C.ar        1 UNL1     0.1347
     28 C         -0.836665   -10.896621   1.119414 C.ar        1 UNL1     0.0342
     29 C         -1.066482   -9.504581   1.095515 C.ar        1 UNL1     0.1435
     30 C         -0.379324   -8.638738   0.243839 C.ar        1 UNL1     0.0774
     31 O         -1.859762   -8.905453   2.01026 O.3        1 UNL1     -0.4436
     32 C         -1.478963   -7.521894   1.969892 C.3        1 UNL1     0.3143
     33 C         -0.861332   -7.320791   0.60084 C.2        1 UNL1     0.2504
     34 C         -1.458961   -11.722988   2.210268 C.3        1 UNL1     -0.0327
     35 O         -2.684051   -6.747298   2.001778 O.2        1 UNL1     -0.4528
     36 C         -1.782562   -3.490912   3.73133 C.3        1 UNL1     0.0854
     37 C         -0.679508   -2.431009   3.3474 C.3        1 UNL1     0.0236
     38 C         -1.218383   -0.932204   3.160471 C.3        1 UNL1     0.1131
     39 C         -2.462501   -0.656328   2.223277 C.3        1 UNL1     0.0200
     40 C         -2.584864   -1.407   0.738704 C.3        1 UNL1     0.0661
     41 C         -1.371985   -1.470622   -0.445562 C.3        1 UNL1     0.0091
     42 C         -0.981392   -2.769945   -1.680309 C.3        1 UNL1     0.0661
     43 C         1.888408   -11.001985   -1.515564 C.2        1 UNL1     0.2131
     44 O         2.429021   -12.081044   -1.353984 O.2        1 UNL1     -0.2851
     45 O         0.32809   -12.708106   0.07171 O.3        1 UNL1     -0.5056
     46 O         -0.80068   -6.306041   -0.056775 O.2        1 UNL1     -0.2836
     47 C         -2.754301   -3.894622   -3.326428 C.3        1 UNL1     -0.0566
     48 O         -0.866906   -1.819514   -2.812868 O.3        1 UNL1     -0.3909
     49 C         -0.060689   -1.043623   0.175461 C.3        1 UNL1     -0.0577
     50 O         -3.202591   -2.671874   0.866099 O.3        1 UNL1     -0.3910
     51 O         -3.115774   -3.034368   3.692034 O.3        1 UNL1     -0.3753
     52 C         0.415647   -3.043031   2.41412 C.3        1 UNL1     -0.0564
     53 O         -0.129207   0.100178   3.146067 O.3        1 UNL1     -0.4608
     54 C         -0.295589   1.435213   3.406699 C.2        1 UNL1     0.3042
     55 O         -0.738648   1.945952   4.43465 O.2        1 UNL1     -0.2512
     56 C         0.185349   2.328721   2.298973 C.3        1 UNL1     0.0332
     57 C         -3.765699   -0.620238   3.149856 C.3        1 UNL1     -0.0567
     58 C         -0.381603   -7.338726   3.044034 C.3        1 UNL1     0.0210
     59 C         -4.022685   -3.76061   4.520254 C.3        1 UNL1     0.0372
     60 C         -1.738768   -4.755869   2.948308 C.2        1 UNL1     -0.0208
     61 C         -2.721964   -5.455198   2.379968 C.2        1 UNL1     0.0882
     62 H         -1.591863   -4.83568   -1.794284 H        1 UNL1     0.0365
     63 H         -1.014246   -6.574529   -2.695944 H        1 UNL1     0.0576
     64 H         0.172138   -6.038863   -5.489209 H        1 UNL1     0.0615
     65 H         -0.132151   -8.628279   -3.768687 H        1 UNL1     0.0622
     66 H         -1.54806   -3.7701   4.768205 H        1 UNL1     0.0645
     67 H         -0.07151   -2.332983   4.263527 H        1 UNL1     0.0362
     68 H         -1.57437   -0.735812   4.183323 H        1 UNL1     0.0741
     69 H         -2.474072   0.392959   1.960082 H        1 UNL1     0.0359
     70 H         -3.35571   -0.769125   0.265447 H        1 UNL1     0.0600
     71 H         -1.633786   -0.572576   -1.0388 H        1 UNL1     0.0348
     72 H         -2.017335   -2.955994   -1.361684 H        1 UNL1     0.0602
     73 H         -0.756039   -5.155978   2.985792 H        1 UNL1     0.0628
     74 H         -3.741699   -5.091432   2.249383 H        1 UNL1     0.1022
     75 H         2.155945   -10.434955   -6.791192 H        1 UNL1     0.0279
     76 H         1.613773   -8.985982   -7.539409 H        1 UNL1     0.0279
     77 H         3.058807   -9.017368   -6.450286 H        1 UNL1     0.0279
     78 H         3.321603   -9.811619   -4.2204 H        1 UNL1     0.1553
     79 H         3.286494   -7.851566   -3.931981 H        1 UNL1     0.1484
     80 H         3.754522   -5.389899   -1.075298 H        1 UNL1     0.0317
     81 H         3.924678   -7.127395   -0.870169 H        1 UNL1     0.0317
     82 H         5.081739   -7.334374   -3.086489 H        1 UNL1     0.0428
     83 H         5.889616   -6.223148   -2.002877 H        1 UNL1     0.0428
     84 H         3.409984   -4.497081   -4.998749 H        1 UNL1     0.0428
     85 H         3.536178   -6.221364   -5.005497 H        1 UNL1     0.0428
     86 H         1.504614   -5.240434   -3.939956 H        1 UNL1     0.0317
     87 H         2.406517   -4.391306   -2.770382 H        1 UNL1     0.0317
     88 H         5.724346   -4.367959   -5.172893 H        1 UNL1     0.0429
     89 H         6.752345   -4.502174   -3.744103 H        1 UNL1     0.0429
     90 H         6.543792   -7.109865   -4.139606 H        1 UNL1     0.0308
     91 H         5.319622   -7.829094   -5.929425 H        1 UNL1     0.0233
     92 H         4.902354   -6.140916   -6.318576 H        1 UNL1     0.0233
     93 H         6.313245   -6.888759   -7.036018 H        1 UNL1     0.0233
     94 H         8.664617   -6.49391   -4.474954 H        1 UNL1     0.0233
     95 H         8.255351   -6.753145   -6.177783 H        1 UNL1     0.0233
     96 H         8.24965   -5.107196   -5.503388 H        1 UNL1     0.0233
     97 H         -2.262024   -12.351708   1.837399 H        1 UNL1     0.0280
     98 H         -0.735723   -12.404466   2.676927 H        1 UNL1     0.0280
     99 H         -1.872393   -11.0584   2.986472 H        1 UNL1     0.0280
     100 H         1.183243   -12.984096   0.351289 H        1 UNL1     0.2922
     101 H         -2.602529   -3.32498   -4.243013 H        1 UNL1     0.0236
     102 H         -3.402498   -3.372814   -2.623192 H        1 UNL1     0.0236
     103 H         -3.333667   -4.779255   -3.639402 H        1 UNL1     0.0236
     104 H         -0.761173   -0.923803   -2.436713 H        1 UNL1     0.2098
     105 H         0.001453   -1.204721   1.248772 H        1 UNL1     0.0234
     106 H         0.827012   -1.439191   -0.317935 H        1 UNL1     0.0234
     107 H         0.0   0.0   0.0 H        1 UNL1     0.0234
     108 H         -3.312345   -3.033151   -0.034568 H        1 UNL1     0.2098
     109 H         -0.014613   -3.687894   1.635186 H        1 UNL1     0.0234
     110 H         1.057567   -2.286455   1.950144 H        1 UNL1     0.0234
     111 H         1.114929   -3.678704   2.973469 H        1 UNL1     0.0234
     112 H         -0.515721   3.156949   2.157954 H        1 UNL1     0.0342
     113 H         1.194216   2.697113   2.478744 H        1 UNL1     0.0342
     114 H         0.205604   1.742721   1.369802 H        1 UNL1     0.0342
     115 H         -4.686991   -0.742648   2.563832 H        1 UNL1     0.0234
     116 H         -3.77303   -1.378475   3.935395 H        1 UNL1     0.0234
     117 H         -3.942508   0.361325   3.622312 H        1 UNL1     0.0234
     118 H         -0.799363   -7.009689   4.011617 H        1 UNL1     0.0309
     119 H         0.220103   -8.239485   3.201464 H        1 UNL1     0.0309
     120 H         0.326046   -6.541854   2.79039 H        1 UNL1     0.0309
     121 H         -3.75025   -3.566004   5.557204 H        1 UNL1     0.0524
     122 H         -5.066974   -3.433448   4.384378 H        1 UNL1     0.0524
     123 H         -3.955945   -4.823981   4.308399 H        1 UNL1     0.0524
@<TRIPOS>BOND
     1     1     2    1
     2     1    42    1
     3     2     3    2
     4     3     4    1
     5     4     5    2
     6     5     7    1
     7     6    75    1
     8     6    76    1
     9     6    77    1
    10     7     9   am
    11     9    10    1
    12    10    11    2
    13    10    43    1
    14    11    14    1
    15    11    15    1
    16    12    13   ar
    17    12    27   ar
    18    12    43    1
    19    13    14    1
    20    13    30   ar
    21    14    17    2
    22    15    16    1
    23    16    17    1
    24    16    18    1
    25    16    22    1
    26    18    19    1
    27    19    20    1
    28    20    21    1
    29    21    22    1
    30    23    24    1
    31    23    88    1
    32    23    89    1
    33    24    25    1
    34    24    26    1
    35    24    90    1
    36    25    91    1
    37    25    92    1
    38    25    93    1
    39    26    94    1
    40    26    95    1
    41    26    96    1
    42    27    28   ar
    43    28    29   ar
    44    29    30   ar
    45    29    31    1
    46    30    33    1
    47    31    32    1
    48    32    33    1
    49    32    35    1
    50    34    97    1
    51    34    98    1
    52    34    99    1
    53    35    61    1
    54    36    37    1
    55    36    60    1
    56    37    38    1
    57    38    39    1
    58    39    40    1
    59    40    41    1
    60    41    42    1
    61    45   100    1
    62    47   101    1
    63    47   102    1
    64    47   103    1
    65    48   104    1
    66    49   105    1
    67    49   106    1
    68    49   107    1
    69    50   108    1
    70    51    59    1
    71    52   109    1
    72    52   110    1
    73    52   111    1
    74    53    54    1
    75    54    55    2
    76    54    56    1
    77    56   112    1
    78    56   113    1
    79    56   114    1
    80    57   115    1
    81    57   116    1
    82    57   117    1
    83    58   118    1
    84    58   119    1
    85    58   120    1
    86    59   121    1
    87    59   122    1
    88    59   123    1
    89    60    61    2
    90     1    47    1
    91     1    62    1
    92     2    63    1
    93     3    64    1
    94     4    65    1
    95     5     6    1
    96     7     8    2
    97     9    78    1
    98    15    79    1
    99    18    80    1
   100    18    81    1
   101    19    82    1
   102    19    83    1
   103    20    23    1
   104    21    84    1
   105    21    85    1
   106    22    86    1
   107    22    87    1
   108    27    45    1
   109    28    34    1
   110    32    58    1
   111    33    46    2
   112    36    51    1
   113    36    66    1
   114    37    52    1
   115    37    67    1
   116    38    53    1
   117    38    68    1
   118    42    48    1
   119    42    72    1
   120    43    44    2
   121    60    73    1
   122    61    74    1
   123    39    69    1
   124    39    57    1
   125    40    70    1
   126    40    50    1
   127    41    71    1
   128    41    49    1
