@<TRIPOS>MOLECULE
*****
 123 128 0 0 0
SMALL
GASTEIGER

@<TRIPOS>ATOM
     1 C         5.168187   1.743577   0.499367 C.3        1 UNL1     0.0009
     2 C         6.606782   2.548782   -0.348645 C.2        1 UNL1     -0.0787
     3 C         7.889546   2.449758   -1.012541 C.2        1 UNL1     -0.0649
     4 C         8.769122   3.684412   -1.766419 C.2        1 UNL1     -0.0542
     5 C         9.790756   3.976533   -2.703439 C.2        1 UNL1     0.0115
     6 C         10.91969   3.350449   -3.567644 C.3        1 UNL1     -0.0348
     7 C         9.888214   5.45992   -3.309288 C.2        1 UNL1     0.2441
     8 O         10.712232   6.280748   -2.93013 O.2        1 UNL1     -0.2702
     9 N         9.139869   5.667921   -4.480982 N.am        1 UNL1     -0.2772
     10 C         7.857022   6.055563   -4.168958 C.2        1 UNL1     0.1049
     11 C         7.010002   5.084755   -3.878594 C.2        1 UNL1     0.0801
     12 C         6.55792   7.662807   -2.759549 C.ar        1 UNL1     0.0753
     13 C         5.797271   6.53537   -2.313558 C.ar        1 UNL1     0.0305
     14 C         5.914052   5.229796   -2.959229 C.2        1 UNL1     0.0924
     15 N         7.131745   3.75573   -4.037968 N.pl3        1 UNL1     -0.3170
     16 C         5.860931   3.157511   -3.725848 C.3        1 UNL1     0.1275
     17 N         5.223903   4.112936   -2.74652 N.2        1 UNL1     -0.2557
     18 C         5.009971   3.217733   -4.990736 C.3        1 UNL1     0.0016
     19 C         5.765922   2.533402   -6.118486 C.3        1 UNL1     0.0026
     20 N         6.034353   1.154942   -5.732715 N.3        1 UNL1     -0.3018
     21 C         6.795772   0.99348   -4.492336 C.3        1 UNL1     0.0026
     22 C         6.015973   1.684261   -3.372233 C.3        1 UNL1     0.0016
     23 C         6.479789   0.335418   -6.842044 C.3        1 UNL1     0.0012
     24 C         5.324448   0.08361   -7.823643 C.3        1 UNL1     -0.0339
     25 C         5.343049   1.091581   -8.98455 C.3        1 UNL1     -0.0615
     26 C         5.370992   -1.348855   -8.326294 C.3        1 UNL1     -0.0615
     27 C         6.353533   8.930484   -2.219791 C.ar        1 UNL1     0.1347
     28 C         5.393305   9.200501   -1.261092 C.ar        1 UNL1     0.0342
     29 C         4.690128   8.066478   -0.802073 C.ar        1 UNL1     0.1435
     30 C         4.909236   6.784442   -1.30764 C.ar        1 UNL1     0.0774
     31 O         3.647993   8.180619   0.049944 O.3        1 UNL1     -0.4436
     32 C         2.925494   6.948451   -0.09369 C.3        1 UNL1     0.3143
     33 C         3.938734   5.954683   -0.624711 C.2        1 UNL1     0.2504
     34 C         4.946967   10.566826   -0.820594 C.3        1 UNL1     -0.0327
     35 O         2.562585   6.511601   1.221875 O.2        1 UNL1     -0.4528
     36 C         -0.681494   4.582259   0.81978 C.3        1 UNL1     0.0854
     37 C         -0.986552   3.322237   -0.078444 C.3        1 UNL1     0.0236
     38 C         -1.5893   2.061426   0.708192 C.3        1 UNL1     0.1131
     39 C         -0.86587   1.529444   2.010464 C.3        1 UNL1     0.0200
     40 C         0.795139   1.382497   2.053986 C.3        1 UNL1     0.0661
     41 C         1.755556   0.613263   0.886301 C.3        1 UNL1     0.0091
     42 C         3.46426   0.974584   0.32489 C.3        1 UNL1     0.0661
     43 C         7.509409   7.454691   -3.879199 C.2        1 UNL1     0.2131
     44 O         7.91108   8.352677   -4.596847 O.2        1 UNL1     -0.2851
     45 O         7.167326   9.965067   -2.676756 O.3        1 UNL1     -0.5056
     46 O         3.953529   4.751092   -0.494318 O.2        1 UNL1     -0.2836
     47 C         5.562112   1.313285   1.937997 C.3        1 UNL1     -0.0566
     48 O         3.911526   -0.436923   0.406849 O.3        1 UNL1     -0.3909
     49 C         0.922967   0.381785   -0.354952 C.3        1 UNL1     -0.0577
     50 O         1.395787   2.599726   2.448067 O.3        1 UNL1     -0.3910
     51 O         -0.80775   4.392224   2.210958 O.3        1 UNL1     -0.3753
     52 C         0.059432   3.161277   -1.229513 C.3        1 UNL1     -0.0564
     53 O         -2.191471   1.023248   -0.192863 O.3        1 UNL1     -0.4608
     54 C         -2.414967   -0.286771   0.141548 C.2        1 UNL1     0.3042
     55 O         -1.842873   -1.279888   -0.305962 O.2        1 UNL1     -0.2512
     56 C         -3.445722   -0.464781   1.219774 C.3        1 UNL1     0.0332
     57 C         -1.588157   2.198621   3.270891 C.3        1 UNL1     -0.0567
     58 C         1.85207   7.194802   -1.179324 C.3        1 UNL1     0.0210
     59 C         -1.159653   5.563203   2.946375 C.3        1 UNL1     0.0372
     60 C         0.648359   5.210306   0.591289 C.2        1 UNL1     -0.0208
     61 C         1.560404   5.644487   1.462154 C.2        1 UNL1     0.0882
     62 H         4.692966   2.728119   0.586275 H        1 UNL1     0.0365
     63 H         6.341266   3.60277   -0.243375 H        1 UNL1     0.0576
     64 H         8.346708   1.482598   -1.233249 H        1 UNL1     0.0615
     65 H         8.282307   4.600103   -1.42 H        1 UNL1     0.0622
     66 H         -1.425071   5.329513   0.508731 H        1 UNL1     0.0645
     67 H         -1.850959   3.632529   -0.69088 H        1 UNL1     0.0362
     68 H         -2.536509   2.498981   1.05871 H        1 UNL1     0.0741
     69 H         -1.198521   0.51856   2.205056 H        1 UNL1     0.0359
     70 H         0.905093   0.721784   2.935138 H        1 UNL1     0.0600
     71 H         1.797669   -0.408079   1.31297 H        1 UNL1     0.0348
     72 H         3.357379   1.462558   1.304571 H        1 UNL1     0.0602
     73 H         0.76791   5.407795   -0.445028 H        1 UNL1     0.0628
     74 H         1.541144   5.433489   2.531895 H        1 UNL1     0.1022
     75 H         10.963024   2.245083   -3.414924 H        1 UNL1     0.0279
     76 H         10.807677   3.433685   -4.646344 H        1 UNL1     0.0279
     77 H         11.92455   3.654203   -3.23948 H        1 UNL1     0.0279
     78 H         9.077893   4.798195   -5.006161 H        1 UNL1     0.1553
     79 H         7.797543   3.327382   -4.654542 H        1 UNL1     0.1484
     80 H         4.048   2.727543   -4.798142 H        1 UNL1     0.0317
     81 H         4.784622   4.254763   -5.261727 H        1 UNL1     0.0317
     82 H         6.697386   3.064003   -6.364963 H        1 UNL1     0.0428
     83 H         5.142097   2.58936   -7.011101 H        1 UNL1     0.0428
     84 H         6.914773   -0.049672   -4.183333 H        1 UNL1     0.0428
     85 H         7.826321   1.360681   -4.594556 H        1 UNL1     0.0428
     86 H         6.530882   1.433171   -2.463492 H        1 UNL1     0.0317
     87 H         5.035949   1.207407   -3.248705 H        1 UNL1     0.0317
     88 H         7.274876   0.878089   -7.369907 H        1 UNL1     0.0429
     89 H         6.913916   -0.609483   -6.490663 H        1 UNL1     0.0429
     90 H         4.371719   0.183018   -7.290127 H        1 UNL1     0.0308
     91 H         6.290893   1.052908   -9.529708 H        1 UNL1     0.0233
     92 H         4.522   0.896766   -9.678477 H        1 UNL1     0.0233
     93 H         5.215061   2.125549   -8.641963 H        1 UNL1     0.0233
     94 H         4.674046   -1.478977   -9.161261 H        1 UNL1     0.0233
     95 H         6.376106   -1.586121   -8.686034 H        1 UNL1     0.0233
     96 H         5.101857   -2.057347   -7.537894 H        1 UNL1     0.0233
     97 H         4.152526   10.517475   -0.081908 H        1 UNL1     0.0280
     98 H         5.759523   11.136037   -0.350478 H        1 UNL1     0.0280
     99 H         4.575011   11.13195   -1.690868 H        1 UNL1     0.0280
     100 H         6.701382   10.715779   -3.000715 H        1 UNL1     0.2922
     101 H         4.698614   0.878785   2.441224 H        1 UNL1     0.0236
     102 H         6.011345   2.118482   2.518369 H        1 UNL1     0.0236
     103 H         6.318831   0.511058   1.937734 H        1 UNL1     0.0236
     104 H         4.333493   -0.562436   1.279294 H        1 UNL1     0.2098
     105 H         0.712529   1.280867   -0.928693 H        1 UNL1     0.0234
     106 H         1.292218   -0.406846   -1.010422 H        1 UNL1     0.0234
     107 H         0.0   -0.0   0.0 H        1 UNL1     0.0234
     108 H         1.196389   3.259097   1.755797 H        1 UNL1     0.2098
     109 H         1.082854   3.040632   -0.847721 H        1 UNL1     0.0234
     110 H         -0.176022   2.338441   -1.913067 H        1 UNL1     0.0234
     111 H         0.086703   4.046836   -1.878348 H        1 UNL1     0.0234
     112 H         -3.573109   -1.528855   1.440829 H        1 UNL1     0.0342
     113 H         -3.196929   0.094339   2.120513 H        1 UNL1     0.0342
     114 H         -4.404604   -0.081652   0.844379 H        1 UNL1     0.0342
     115 H         -2.652616   1.931068   3.321196 H        1 UNL1     0.0234
     116 H         -1.138208   1.937397   4.230765 H        1 UNL1     0.0234
     117 H         -1.647619   3.298985   3.21085 H        1 UNL1     0.0234
     118 H         0.950813   7.68233   -0.768157 H        1 UNL1     0.0309
     119 H         2.223143   7.782743   -2.024801 H        1 UNL1     0.0309
     120 H         1.46333   6.263302   -1.605112 H        1 UNL1     0.0309
     121 H         -0.360391   6.29108   2.809514 H        1 UNL1     0.0524
     122 H         -2.093055   6.022356   2.580346 H        1 UNL1     0.0524
     123 H         -1.273444   5.325158   4.000168 H        1 UNL1     0.0524
@<TRIPOS>BOND
     1     1     2    1
     2     1    42    1
     3     2     3    2
     4     3     4    1
     5     4     5    2
     6     5     7    1
     7     6    75    1
     8     6    76    1
     9     6    77    1
    10     7     9   am
    11     9    10    1
    12    10    11    2
    13    10    43    1
    14    11    14    1
    15    11    15    1
    16    12    13   ar
    17    12    27   ar
    18    12    43    1
    19    13    14    1
    20    13    30   ar
    21    14    17    2
    22    15    16    1
    23    16    17    1
    24    16    18    1
    25    16    22    1
    26    18    19    1
    27    19    20    1
    28    20    21    1
    29    21    22    1
    30    23    24    1
    31    23    88    1
    32    23    89    1
    33    24    25    1
    34    24    26    1
    35    24    90    1
    36    25    91    1
    37    25    92    1
    38    25    93    1
    39    26    94    1
    40    26    95    1
    41    26    96    1
    42    27    28   ar
    43    28    29   ar
    44    29    30   ar
    45    29    31    1
    46    30    33    1
    47    31    32    1
    48    32    33    1
    49    32    35    1
    50    34    97    1
    51    34    98    1
    52    34    99    1
    53    35    61    1
    54    36    37    1
    55    36    60    1
    56    37    38    1
    57    38    39    1
    58    39    40    1
    59    40    41    1
    60    41    42    1
    61    45   100    1
    62    47   101    1
    63    47   102    1
    64    47   103    1
    65    48   104    1
    66    49   105    1
    67    49   106    1
    68    49   107    1
    69    50   108    1
    70    51    59    1
    71    52   109    1
    72    52   110    1
    73    52   111    1
    74    53    54    1
    75    54    55    2
    76    54    56    1
    77    56   112    1
    78    56   113    1
    79    56   114    1
    80    57   115    1
    81    57   116    1
    82    57   117    1
    83    58   118    1
    84    58   119    1
    85    58   120    1
    86    59   121    1
    87    59   122    1
    88    59   123    1
    89    60    61    2
    90     1    47    1
    91     1    62    1
    92     2    63    1
    93     3    64    1
    94     4    65    1
    95     5     6    1
    96     7     8    2
    97     9    78    1
    98    15    79    1
    99    18    80    1
   100    18    81    1
   101    19    82    1
   102    19    83    1
   103    20    23    1
   104    21    84    1
   105    21    85    1
   106    22    86    1
   107    22    87    1
   108    27    45    1
   109    28    34    1
   110    32    58    1
   111    33    46    2
   112    36    51    1
   113    36    66    1
   114    37    52    1
   115    37    67    1
   116    38    53    1
   117    38    68    1
   118    42    48    1
   119    42    72    1
   120    43    44    2
   121    60    73    1
   122    61    74    1
   123    39    69    1
   124    39    57    1
   125    40    70    1
   126    40    50    1
   127    41    71    1
   128    41    49    1
