@<TRIPOS>MOLECULE
*****
 123 128 0 0 0
SMALL
GASTEIGER

@<TRIPOS>ATOM
     1 C         5.202616   1.588877   0.638382 C.3        1 UNL1     0.0009
     2 C         6.690876   2.33865   -0.173996 C.2        1 UNL1     -0.0787
     3 C         7.989455   2.191773   -0.797026 C.2        1 UNL1     -0.0649
     4 C         8.929865   3.389264   -1.537298 C.2        1 UNL1     -0.0542
     5 C         9.988143   3.638109   -2.445703 C.2        1 UNL1     0.0115
     6 C         11.12256   2.966811   -3.267761 C.3        1 UNL1     -0.0348
     7 C         10.150503   5.110286   -3.064833 C.2        1 UNL1     0.2441
     8 O         10.988015   5.909666   -2.669751 O.2        1 UNL1     -0.2702
     9 N         9.444972   5.327186   -4.261216 N.am        1 UNL1     -0.2772
     10 C         8.166058   5.75825   -3.993103 C.2        1 UNL1     0.1049
     11 C         7.280532   4.817818   -3.718049 C.2        1 UNL1     0.0801
     12 C         6.875913   7.422069   -2.642338 C.ar        1 UNL1     0.0753
     13 C         6.067031   6.324303   -2.207335 C.ar        1 UNL1     0.0305
     14 C         6.16228   5.007987   -2.834464 C.2        1 UNL1     0.0924
     15 N         7.365241   3.483816   -3.858727 N.pl3        1 UNL1     -0.3170
     16 C         6.06737   2.929195   -3.579116 C.3        1 UNL1     0.1275
     17 N         5.431243   3.915768   -2.630571 N.2        1 UNL1     -0.2557
     18 C         5.257509   3.000454   -4.870142 C.3        1 UNL1     0.0016
     19 C         6.025468   2.279327   -5.966411 C.3        1 UNL1     0.0026
     20 N         6.238624   0.89798   -5.557175 N.3        1 UNL1     -0.3018
     21 C         6.956594   0.728021   -4.292264 C.3        1 UNL1     0.0026
     22 C         6.165244   1.456242   -3.204443 C.3        1 UNL1     0.0016
     23 C         6.691559   0.051605   -6.643059 C.3        1 UNL1     0.0012
     24 C         5.560503   -0.172523   -7.659049 C.3        1 UNL1     -0.0339
     25 C         5.705034   0.756609   -8.875552 C.3        1 UNL1     -0.0615
     26 C         5.514545   -1.632983   -8.073445 C.3        1 UNL1     -0.0615
     27 C         6.695166   8.701944   -2.123332 C.ar        1 UNL1     0.1347
     28 C         5.715239   9.01328   -1.197663 C.ar        1 UNL1     0.0342
     29 C         4.963172   7.907304   -0.7478 C.ar        1 UNL1     0.1435
     30 C         5.157136   6.613037   -1.23202 C.ar        1 UNL1     0.0774
     31 O         3.899757   8.0641   0.070472 O.3        1 UNL1     -0.4436
     32 C         3.143594   6.853316   -0.081491 C.3        1 UNL1     0.3143
     33 C         4.140762   5.822178   -0.569984 C.2        1 UNL1     0.2504
     34 C         5.298885   10.398059   -0.7864 C.3        1 UNL1     -0.0327
     35 O         2.727375   6.443958   1.227111 O.2        1 UNL1     -0.4528
     36 C         -0.562019   4.611574   0.747169 C.3        1 UNL1     0.0854
     37 C         -0.87911   3.35082   -0.145846 C.3        1 UNL1     0.0236
     38 C         -1.544772   2.118987   0.635962 C.3        1 UNL1     0.1131
     39 C         -0.878275   1.580644   1.965713 C.3        1 UNL1     0.0200
     40 C         0.77521   1.382713   2.061879 C.3        1 UNL1     0.0661
     41 C         1.745985   0.569893   0.932928 C.3        1 UNL1     0.0091
     42 C         3.48145   0.87112   0.420262 C.3        1 UNL1     0.0661
     43 C         7.85394   7.170916   -3.729833 C.2        1 UNL1     0.2131
     44 O         8.305224   8.047211   -4.444807 O.2        1 UNL1     -0.2851
     45 O         7.554558   9.705125   -2.566631 O.3        1 UNL1     -0.5056
     46 O         4.11377   4.620381   -0.425737 O.2        1 UNL1     -0.2836
     47 C         5.538978   1.16406   2.093158 C.3        1 UNL1     -0.0566
     48 O         3.881454   -0.552499   0.53171 O.3        1 UNL1     -0.3909
     49 C         0.944595   0.349333   -0.330646 C.3        1 UNL1     -0.0577
     50 O         1.401567   2.585393   2.460579 O.3        1 UNL1     -0.3910
     51 O         -0.736353   4.442461   2.135852 O.3        1 UNL1     -0.3753
     52 C         0.195757   3.14348   -1.262368 C.3        1 UNL1     -0.0564
     53 O         -2.151637   1.089147   -0.271491 O.3        1 UNL1     -0.4608
     54 C         -2.438745   -0.205348   0.074603 C.2        1 UNL1     0.3042
     55 O         -1.887534   -1.227152   -0.332731 O.2        1 UNL1     -0.2512
     56 C         -3.518568   -0.325122   1.112076 C.3        1 UNL1     0.0332
     57 C         -1.617106   2.287192   3.195792 C.3        1 UNL1     -0.0567
     58 C         2.111887   7.119688   -1.202274 C.3        1 UNL1     0.0210
     59 C         -1.03475   5.639545   2.85266 C.3        1 UNL1     0.0372
     60 C         0.793232   5.195189   0.552623 C.2        1 UNL1     -0.0208
     61 C         1.691614   5.611374   1.44618 C.2        1 UNL1     0.0882
     62 H         4.756143   2.588688   0.699629 H        1 UNL1     0.0365
     63 H         6.455533   3.401577   -0.088733 H        1 UNL1     0.0576
     64 H         8.422493   1.20827   -0.99275 H        1 UNL1     0.0615
     65 H         8.461769   4.323773   -1.216264 H        1 UNL1     0.0622
     66 H         -1.271968   5.377732   0.405084 H        1 UNL1     0.0645
     67 H         -1.714354   3.680352   -0.78798 H        1 UNL1     0.0362
     68 H         -2.487969   2.589977   0.952301 H        1 UNL1     0.0741
     69 H         -1.248275   0.583019   2.161294 H        1 UNL1     0.0359
     70 H         0.837555   0.729654   2.953331 H        1 UNL1     0.0600
     71 H         1.743018   -0.447006   1.372091 H        1 UNL1     0.0348
     72 H         3.360266   1.37404   1.390675 H        1 UNL1     0.0602
     73 H         0.950329   5.376269   -0.481678 H        1 UNL1     0.0628
     74 H         1.633273   5.414083   2.517119 H        1 UNL1     0.1022
     75 H         11.10848   1.859514   -3.12378 H        1 UNL1     0.0279
     76 H         11.060164   3.063213   -4.349373 H        1 UNL1     0.0279
     77 H         12.125576   3.221167   -2.894984 H        1 UNL1     0.0279
     78 H         9.371671   4.453492   -4.778287 H        1 UNL1     0.1553
     79 H         8.035659   3.027537   -4.449727 H        1 UNL1     0.1484
     80 H         4.275209   2.542756   -4.701716 H        1 UNL1     0.0317
     81 H         5.073182   4.040616   -5.159515 H        1 UNL1     0.0317
     82 H         6.980195   2.777706   -6.19008 H        1 UNL1     0.0428
     83 H         5.431091   2.34379   -6.878338 H        1 UNL1     0.0428
     84 H         7.033328   -0.314495   -3.968098 H        1 UNL1     0.0428
     85 H         8.000799   1.061765   -4.366882 H        1 UNL1     0.0428
     86 H         6.644189   1.200333   -2.277561 H        1 UNL1     0.0317
     87 H         5.167425   1.011595   -3.105749 H        1 UNL1     0.0317
     88 H         7.521043   0.561449   -7.150315 H        1 UNL1     0.0429
     89 H         7.082053   -0.903249   -6.268169 H        1 UNL1     0.0429
     90 H         4.597809   0.032134   -7.17578 H        1 UNL1     0.0308
     91 H         6.672516   0.619735   -9.367839 H        1 UNL1     0.0233
     92 H         4.906039   0.574229   -9.598016 H        1 UNL1     0.0233
     93 H         5.634218   1.816413   -8.602356 H        1 UNL1     0.0233
     94 H         4.845259   -1.761385   -8.931003 H        1 UNL1     0.0233
     95 H         6.511957   -1.968491   -8.371045 H        1 UNL1     0.0233
     96 H         5.157171   -2.268092   -7.258038 H        1 UNL1     0.0233
     97 H         4.475164   10.382637   -0.078957 H        1 UNL1     0.0280
     98 H         6.111482   10.944118   -0.289648 H        1 UNL1     0.0280
     99 H         4.980413   10.966931   -1.67525 H        1 UNL1     0.0280
     100 H         7.122442   10.471156   -2.901435 H        1 UNL1     0.2922
     101 H         4.644098   0.775736   2.579008 H        1 UNL1     0.0236
     102 H         6.00796   1.957659   2.673881 H        1 UNL1     0.0236
     103 H         6.259161   0.329479   2.124859 H        1 UNL1     0.0236
     104 H         4.263219   -0.682796   1.421794 H        1 UNL1     0.2098
     105 H         0.779378   1.247618   -0.920222 H        1 UNL1     0.0234
     106 H         1.309057   -0.457799   -0.965968 H        1 UNL1     0.0234
     107 H         0.0   -0.0   0.0 H        1 UNL1     0.0234
     108 H         1.261628   3.236119   1.745917 H        1 UNL1     0.2098
     109 H         1.205653   3.014244   -0.848702 H        1 UNL1     0.0234
     110 H         -0.035327   2.308467   -1.932515 H        1 UNL1     0.0234
     111 H         0.257431   4.012326   -1.931136 H        1 UNL1     0.0234
     112 H         -3.683489   -1.378606   1.357674 H        1 UNL1     0.0342
     113 H         -3.2933   0.253924   2.006394 H        1 UNL1     0.0342
     114 H         -4.450165   0.07095   0.684972 H        1 UNL1     0.0342
     115 H         -2.696833   2.083777   3.195139 H        1 UNL1     0.0234
     116 H         -1.228674   1.995842   4.17369 H        1 UNL1     0.0234
     117 H         -1.607872   3.389359   3.140266 H        1 UNL1     0.0234
     118 H         1.21365   7.638548   -0.824173 H        1 UNL1     0.0309
     119 H         2.526333   7.686828   -2.041791 H        1 UNL1     0.0309
     120 H         1.708316   6.195598   -1.630405 H        1 UNL1     0.0309
     121 H         -0.172002   6.299475   2.765979 H        1 UNL1     0.0524
     122 H         -1.904047   6.172758   2.433086 H        1 UNL1     0.0524
     123 H         -1.230269   5.41342   3.897043 H        1 UNL1     0.0524
@<TRIPOS>BOND
     1     1     2    1
     2     1    42    1
     3     2     3    2
     4     3     4    1
     5     4     5    2
     6     5     7    1
     7     6    75    1
     8     6    76    1
     9     6    77    1
    10     7     9   am
    11     9    10    1
    12    10    11    2
    13    10    43    1
    14    11    14    1
    15    11    15    1
    16    12    13   ar
    17    12    27   ar
    18    12    43    1
    19    13    14    1
    20    13    30   ar
    21    14    17    2
    22    15    16    1
    23    16    17    1
    24    16    18    1
    25    16    22    1
    26    18    19    1
    27    19    20    1
    28    20    21    1
    29    21    22    1
    30    23    24    1
    31    23    88    1
    32    23    89    1
    33    24    25    1
    34    24    26    1
    35    24    90    1
    36    25    91    1
    37    25    92    1
    38    25    93    1
    39    26    94    1
    40    26    95    1
    41    26    96    1
    42    27    28   ar
    43    28    29   ar
    44    29    30   ar
    45    29    31    1
    46    30    33    1
    47    31    32    1
    48    32    33    1
    49    32    35    1
    50    34    97    1
    51    34    98    1
    52    34    99    1
    53    35    61    1
    54    36    37    1
    55    36    60    1
    56    37    38    1
    57    38    39    1
    58    39    40    1
    59    40    41    1
    60    41    42    1
    61    45   100    1
    62    47   101    1
    63    47   102    1
    64    47   103    1
    65    48   104    1
    66    49   105    1
    67    49   106    1
    68    49   107    1
    69    50   108    1
    70    51    59    1
    71    52   109    1
    72    52   110    1
    73    52   111    1
    74    53    54    1
    75    54    55    2
    76    54    56    1
    77    56   112    1
    78    56   113    1
    79    56   114    1
    80    57   115    1
    81    57   116    1
    82    57   117    1
    83    58   118    1
    84    58   119    1
    85    58   120    1
    86    59   121    1
    87    59   122    1
    88    59   123    1
    89    60    61    2
    90     1    47    1
    91     1    62    1
    92     2    63    1
    93     3    64    1
    94     4    65    1
    95     5     6    1
    96     7     8    2
    97     9    78    1
    98    15    79    1
    99    18    80    1
   100    18    81    1
   101    19    82    1
   102    19    83    1
   103    20    23    1
   104    21    84    1
   105    21    85    1
   106    22    86    1
   107    22    87    1
   108    27    45    1
   109    28    34    1
   110    32    58    1
   111    33    46    2
   112    36    51    1
   113    36    66    1
   114    37    52    1
   115    37    67    1
   116    38    53    1
   117    38    68    1
   118    42    48    1
   119    42    72    1
   120    43    44    2
   121    60    73    1
   122    61    74    1
   123    39    69    1
   124    39    57    1
   125    40    70    1
   126    40    50    1
   127    41    71    1
   128    41    49    1
