@<TRIPOS>MOLECULE
*****
 123 128 0 0 0
SMALL
GASTEIGER

@<TRIPOS>ATOM
     1 C         1.440433   -3.028191   3.174233 C.3        1 UNL1     0.0009
     2 C         2.641667   -4.435692   3.060144 C.2        1 UNL1     -0.0787
     3 C         2.91914   -5.856189   3.095432 C.2        1 UNL1     -0.0649
     4 C         4.384434   -6.638653   2.768293 C.2        1 UNL1     -0.0542
     5 C         4.989335   -7.869467   2.412949 C.2        1 UNL1     0.0115
     6 C         4.731905   -9.391177   2.235603 C.3        1 UNL1     -0.0348
     7 C         6.483546   -7.859924   1.826238 C.2        1 UNL1     0.2441
     8 O         7.462762   -8.161741   2.494496 O.2        1 UNL1     -0.2702
     9 N         6.566665   -7.735741   0.428447 N.am        1 UNL1     -0.2772
     10 C         6.590042   -6.408894   0.06478 C.2        1 UNL1     0.1049
     11 C         5.417292   -5.807085   -0.017105 C.2        1 UNL1     0.0801
     12 C         7.71461   -4.232735   0.571742 C.ar        1 UNL1     0.0753
     13 C         6.40309   -3.669535   0.678177 C.ar        1 UNL1     0.0305
     14 C         5.215877   -4.410131   0.257352 C.2        1 UNL1     0.0924
     15 N         4.177508   -6.326096   -0.007588 N.pl3        1 UNL1     -0.3170
     16 C         3.253466   -5.262033   -0.297713 C.3        1 UNL1     0.1275
     17 N         3.947693   -4.014687   0.192081 N.2        1 UNL1     -0.2557
     18 C         3.173669   -5.133857   -1.815905 C.3        1 UNL1     0.0016
     19 C         2.780973   -6.482456   -2.39785 C.3        1 UNL1     0.0026
     20 N         1.496276   -6.877674   -1.837149 N.3        1 UNL1     -0.3018
     21 C         1.456982   -6.968187   -0.376112 C.3        1 UNL1     0.0026
     22 C         1.850248   -5.601526   0.187335 C.3        1 UNL1     0.0016
     23 C         0.892096   -7.991031   -2.541455 C.3        1 UNL1     0.0012
     24 C         0.880921   -7.728296   -4.055589 C.3        1 UNL1     -0.0339
     25 C         2.294188   -7.436315   -4.586136 C.3        1 UNL1     -0.0615
     26 C         0.241662   -8.898635   -4.782525 C.3        1 UNL1     -0.0615
     27 C         8.849532   -3.478661   0.860611 C.ar        1 UNL1     0.1347
     28 C         8.801031   -2.145056   1.225571 C.ar        1 UNL1     0.0342
     29 C         7.497122   -1.625664   1.371235 C.ar        1 UNL1     0.1435
     30 C         6.349952   -2.379502   1.120338 C.ar        1 UNL1     0.0774
     31 O         7.284098   -0.313983   1.614382 O.3        1 UNL1     -0.4436
     32 C         5.919303   -0.090726   1.229205 C.3        1 UNL1     0.3143
     33 C         5.25618   -1.450602   1.314175 C.2        1 UNL1     0.2504
     34 C         9.975139   -1.209543   1.305471 C.3        1 UNL1     -0.0327
     35 O         5.32016   0.729471   2.239927 O.2        1 UNL1     -0.4528
     36 C         2.65051   2.771275   0.475816 C.3        1 UNL1     0.0854
     37 C         1.414819   2.27672   -0.370356 C.3        1 UNL1     0.0236
     38 C         -0.006517   2.835302   0.119066 C.3        1 UNL1     0.1131
     39 C         -0.416805   2.711255   1.641743 C.3        1 UNL1     0.0200
     40 C         -0.133584   1.297558   2.480602 C.3        1 UNL1     0.0661
     41 C         -0.552927   -0.263776   1.966797 C.3        1 UNL1     0.0091
     42 C         0.271477   -1.875605   2.263053 C.3        1 UNL1     0.0661
     43 C         7.830881   -5.619834   0.057254 C.2        1 UNL1     0.2131
     44 O         8.846196   -6.069452   -0.442462 O.2        1 UNL1     -0.2851
     45 O         10.085917   -4.115584   0.776231 O.3        1 UNL1     -0.5056
     46 O         4.091178   -1.709421   1.51823 O.2        1 UNL1     -0.2836
     47 C         1.034587   -2.784096   4.65264 C.3        1 UNL1     -0.0566
     48 O         -0.979516   -2.574477   2.644773 O.3        1 UNL1     -0.3909
     49 C         -0.910752   -0.214556   0.498113 C.3        1 UNL1     -0.0577
     50 O         1.169344   1.292302   3.028391 O.3        1 UNL1     -0.3910
     51 O         2.345411   3.491771   1.648518 O.3        1 UNL1     -0.3753
     52 C         1.602905   0.807272   -0.870653 C.3        1 UNL1     -0.0564
     53 O         -1.104641   2.646112   -0.886249 O.3        1 UNL1     -0.4608
     54 C         -2.357749   3.195194   -0.807771 C.2        1 UNL1     0.3042
     55 O         -2.81128   4.12028   -1.480352 O.2        1 UNL1     -0.2512
     56 C         -3.251159   2.514607   0.189893 C.3        1 UNL1     0.0332
     57 C         -0.038572   4.090896   2.35708 C.3        1 UNL1     -0.0567
     58 C         5.950163   0.357669   -0.250497 C.3        1 UNL1     0.0210
     59 C         1.508484   4.630493   1.451715 C.3        1 UNL1     0.0372
     60 C         3.613139   1.70507   0.865317 C.2        1 UNL1     -0.0208
     61 C         4.210651   1.464467   2.03315 C.2        1 UNL1     0.0882
     62 H         2.261725   -2.334775   2.956597 H        1 UNL1     0.0365
     63 H         3.582731   -3.892069   2.953652 H        1 UNL1     0.0576
     64 H         2.118552   -6.593732   3.185966 H        1 UNL1     0.0615
     65 H         5.119687   -5.829453   2.7774 H        1 UNL1     0.0622
     66 H         3.199487   3.439865   -0.202165 H        1 UNL1     0.0645
     67 H         1.53075   2.791266   -1.340078 H        1 UNL1     0.0362
     68 H         0.148934   3.911046   -0.054522 H        1 UNL1     0.0741
     69 H         -1.489596   2.824604   1.723469 H        1 UNL1     0.0359
     70 H         -0.798898   1.45569   3.350896 H        1 UNL1     0.0600
     71 H         -1.554212   -0.357645   2.431099 H        1 UNL1     0.0348
     72 H         0.651499   -1.193724   3.03761 H        1 UNL1     0.0602
     73 H         3.900902   1.16125   4.2e-05 H        1 UNL1     0.0628
     74 H         3.93354   1.936417   2.976395 H        1 UNL1     0.1022
     75 H         5.458216   -9.829624   1.509469 H        1 UNL1     0.0279
     76 H         4.876219   -10.013455   3.115951 H        1 UNL1     0.0279
     77 H         3.773713   -9.605462   1.739972 H        1 UNL1     0.0279
     78 H         5.745903   -8.156867   -0.001763 H        1 UNL1     0.1553
     79 H         3.975563   -7.289638   -0.201848 H        1 UNL1     0.1484
     80 H         2.440986   -4.358781   -2.071245 H        1 UNL1     0.0317
     81 H         4.132898   -4.807684   -2.232007 H        1 UNL1     0.0317
     82 H         3.548224   -7.247199   -2.207049 H        1 UNL1     0.0428
     83 H         2.731635   -6.368949   -3.48124 H        1 UNL1     0.0428
     84 H         0.462025   -7.188383   0.02312 H        1 UNL1     0.0428
     85 H         2.082939   -7.789385   -0.000442 H        1 UNL1     0.0428
     86 H         1.682369   -5.665777   1.246428 H        1 UNL1     0.0317
     87 H         1.13021   -4.840767   -0.138069 H        1 UNL1     0.0317
     88 H         1.496265   -8.88675   -2.346619 H        1 UNL1     0.0429
     89 H         -0.119121   -8.197667   -2.167937 H        1 UNL1     0.0429
     90 H         0.243287   -6.86124   -4.264993 H        1 UNL1     0.0308
     91 H         2.701866   -8.296206   -5.126032 H        1 UNL1     0.0233
     92 H         2.286244   -6.567713   -5.248764 H        1 UNL1     0.0233
     93 H         3.001812   -7.200973   -3.781948 H        1 UNL1     0.0233
     94 H         0.957533   -9.346423   -5.480272 H        1 UNL1     0.0233
     95 H         -0.054942   -9.667831   -4.063967 H        1 UNL1     0.0233
     96 H         -0.640524   -8.583977   -5.347066 H        1 UNL1     0.0233
     97 H         9.74218   -0.310452   1.86814 H        1 UNL1     0.0280
     98 H         10.834944   -1.666892   1.812248 H        1 UNL1     0.0280
     99 H         10.279582   -0.911743   0.288748 H        1 UNL1     0.0280
     100 H         10.380964   -4.505853   1.580133 H        1 UNL1     0.2922
     101 H         1.201562   -3.690497   5.234199 H        1 UNL1     0.0236
     102 H         0.01723   -2.409821   4.761667 H        1 UNL1     0.0236
     103 H         1.667923   -2.021194   5.135402 H        1 UNL1     0.0236
     104 H         -1.545653   -1.93073   3.113867 H        1 UNL1     0.2098
     105 H         -1.296528   -1.148974   0.098298 H        1 UNL1     0.0234
     106 H         -1.559816   0.614017   0.215079 H        1 UNL1     0.0234
     107 H         0.0   0.0   0.0 H        1 UNL1     0.0234
     108 H         1.077298   1.380115   3.996681 H        1 UNL1     0.2098
     109 H         0.652634   0.256759   -0.911056 H        1 UNL1     0.0234
     110 H         2.104433   0.744325   -1.842378 H        1 UNL1     0.0234
     111 H         2.252049   0.230751   -0.198208 H        1 UNL1     0.0234
     112 H         -2.665719   1.821701   0.801846 H        1 UNL1     0.0342
     113 H         -3.787809   3.22848   0.812979 H        1 UNL1     0.0342
     114 H         -3.997839   1.927691   -0.362523 H        1 UNL1     0.0342
     115 H         -0.305516   4.08494   3.422863 H        1 UNL1     0.0234
     116 H         1.018822   4.353107   2.284883 H        1 UNL1     0.0234
     117 H         -0.628136   4.950499   1.994537 H        1 UNL1     0.0234
     118 H         6.902825   0.095768   -0.743294 H        1 UNL1     0.0309
     119 H         5.119859   -0.045432   -0.838976 H        1 UNL1     0.0309
     120 H         5.899636   1.446409   -0.360945 H        1 UNL1     0.0309
     121 H         1.822007   5.396517   2.160423 H        1 UNL1     0.0524
     122 H         1.609799   5.054088   0.438631 H        1 UNL1     0.0524
     123 H         0.468466   4.366317   1.621032 H        1 UNL1     0.0524
@<TRIPOS>BOND
     1     1     2    1
     2     1    42    1
     3     2     3    2
     4     3     4    1
     5     4     5    2
     6     5     7    1
     7     6    75    1
     8     6    76    1
     9     6    77    1
    10     7     9   am
    11     9    10    1
    12    10    11    2
    13    10    43    1
    14    11    14    1
    15    11    15    1
    16    12    13   ar
    17    12    27   ar
    18    12    43    1
    19    13    14    1
    20    13    30   ar
    21    14    17    2
    22    15    16    1
    23    16    17    1
    24    16    18    1
    25    16    22    1
    26    18    19    1
    27    19    20    1
    28    20    21    1
    29    21    22    1
    30    23    24    1
    31    23    88    1
    32    23    89    1
    33    24    25    1
    34    24    26    1
    35    24    90    1
    36    25    91    1
    37    25    92    1
    38    25    93    1
    39    26    94    1
    40    26    95    1
    41    26    96    1
    42    27    28   ar
    43    28    29   ar
    44    29    30   ar
    45    29    31    1
    46    30    33    1
    47    31    32    1
    48    32    33    1
    49    32    35    1
    50    34    97    1
    51    34    98    1
    52    34    99    1
    53    35    61    1
    54    36    37    1
    55    36    60    1
    56    37    38    1
    57    38    39    1
    58    39    40    1
    59    40    41    1
    60    41    42    1
    61    45   100    1
    62    47   101    1
    63    47   102    1
    64    47   103    1
    65    48   104    1
    66    49   105    1
    67    49   106    1
    68    49   107    1
    69    50   108    1
    70    51    59    1
    71    52   109    1
    72    52   110    1
    73    52   111    1
    74    53    54    1
    75    54    55    2
    76    54    56    1
    77    56   112    1
    78    56   113    1
    79    56   114    1
    80    57   115    1
    81    57   116    1
    82    57   117    1
    83    58   118    1
    84    58   119    1
    85    58   120    1
    86    59   121    1
    87    59   122    1
    88    59   123    1
    89    60    61    2
    90     1    47    1
    91     1    62    1
    92     2    63    1
    93     3    64    1
    94     4    65    1
    95     5     6    1
    96     7     8    2
    97     9    78    1
    98    15    79    1
    99    18    80    1
   100    18    81    1
   101    19    82    1
   102    19    83    1
   103    20    23    1
   104    21    84    1
   105    21    85    1
   106    22    86    1
   107    22    87    1
   108    27    45    1
   109    28    34    1
   110    32    58    1
   111    33    46    2
   112    36    51    1
   113    36    66    1
   114    37    52    1
   115    37    67    1
   116    38    53    1
   117    38    68    1
   118    42    48    1
   119    42    72    1
   120    43    44    2
   121    60    73    1
   122    61    74    1
   123    39    69    1
   124    39    57    1
   125    40    70    1
   126    40    50    1
   127    41    71    1
   128    41    49    1
