@<TRIPOS>MOLECULE
*****
 123 128 0 0 0
SMALL
GASTEIGER

@<TRIPOS>ATOM
     1 C         5.17119   1.738484   0.485523 C.3        1 UNL1     0.0009
     2 C         6.608647   2.541416   -0.366567 C.2        1 UNL1     -0.0787
     3 C         7.889651   2.440424   -1.033557 C.2        1 UNL1     -0.0649
     4 C         8.768833   3.673532   -1.790421 C.2        1 UNL1     -0.0542
     5 C         9.788501   3.963815   -2.730151 C.2        1 UNL1     0.0115
     6 C         10.914556   3.335816   -3.596718 C.3        1 UNL1     -0.0348
     7 C         9.886228   5.446684   -3.337224 C.2        1 UNL1     0.2441
     8 O         10.712154   6.266782   -2.960644 O.2        1 UNL1     -0.2702
     9 N         9.135245   5.6548   -4.507208 N.am        1 UNL1     -0.2772
     10 C         7.853632   6.044175   -4.192282 C.2        1 UNL1     0.1049
     11 C         7.006178   5.074568   -3.899185 C.2        1 UNL1     0.0801
     12 C         6.55992   7.653897   -2.780744 C.ar        1 UNL1     0.0753
     13 C         5.799034   6.527662   -2.33213 C.ar        1 UNL1     0.0305
     14 C         5.91267   5.221523   -2.977219 C.2        1 UNL1     0.0924
     15 N         7.125947   3.745295   -4.057975 N.pl3        1 UNL1     -0.3170
     16 C         5.855196   3.148796   -3.742326 C.3        1 UNL1     0.1275
     17 N         5.221721   4.105627   -2.762067 N.2        1 UNL1     -0.2557
     18 C         5.001193   3.209193   -5.005153 C.3        1 UNL1     0.0016
     19 C         5.753547   2.523217   -6.134308 C.3        1 UNL1     0.0026
     20 N         6.021289   1.144693   -5.748283 N.3        1 UNL1     -0.3018
     21 C         6.785571   0.983147   -4.509677 C.3        1 UNL1     0.0026
     22 C         6.009358   1.675596   -3.388115 C.3        1 UNL1     0.0016
     23 C         6.463015   0.323906   -6.858161 C.3        1 UNL1     0.0012
     24 C         5.306075   0.076459   -7.838986 C.3        1 UNL1     -0.0339
     25 C         5.332483   1.079214   -9.004251 C.3        1 UNL1     -0.0615
     26 C         5.342064   -1.358482   -8.335403 C.3        1 UNL1     -0.0615
     27 C         6.358372   8.922174   -2.241327 C.ar        1 UNL1     0.1347
     28 C         5.400832   9.193968   -1.280444 C.ar        1 UNL1     0.0342
     29 C         4.697442   8.061087   -0.81894 C.ar        1 UNL1     0.1435
     30 C         4.913778   6.778457   -1.324193 C.ar        1 UNL1     0.0774
     31 O         3.657547   8.177033   0.035567 O.3        1 UNL1     -0.4436
     32 C         2.933232   6.945631   -0.105467 C.3        1 UNL1     0.3143
     33 C         3.943977   5.950306   -0.638323 C.2        1 UNL1     0.2504
     34 C         4.957206   10.561115   -0.839756 C.3        1 UNL1     -0.0327
     35 O         2.573048   6.510084   1.211279 O.2        1 UNL1     -0.4528
     36 C         -0.674304   4.58434   0.818463 C.3        1 UNL1     0.0854
     37 C         -0.983073   3.324087   -0.078168 C.3        1 UNL1     0.0236
     38 C         -1.585378   2.064516   0.710789 C.3        1 UNL1     0.1131
     39 C         -0.859373   1.532535   2.011628 C.3        1 UNL1     0.0200
     40 C         0.801562   1.38364   2.051153 C.3        1 UNL1     0.0661
     41 C         1.758183   0.61249   0.881617 C.3        1 UNL1     0.0091
     42 C         3.465925   0.971405   0.315757 C.3        1 UNL1     0.0661
     43 C         7.508398   7.443907   -3.902597 C.2        1 UNL1     0.2131
     44 O         7.909366   8.340939   -4.62183 O.2        1 UNL1     -0.2851
     45 O         7.172265   9.955485   -2.700984 O.3        1 UNL1     -0.5056
     46 O         3.957662   4.746785   -0.507166 O.2        1 UNL1     -0.2836
     47 C         5.568149   1.308677   1.923463 C.3        1 UNL1     -0.0566
     48 O         3.911713   -0.440579   0.397551 O.3        1 UNL1     -0.3909
     49 C         0.922262   0.381182   -0.357426 C.3        1 UNL1     -0.0577
     50 O         1.404627   2.600413   2.442943 O.3        1 UNL1     -0.3910
     51 O         -0.797356   4.395376   2.210074 O.3        1 UNL1     -0.3753
     52 C         0.059878   3.16112   -1.231704 C.3        1 UNL1     -0.0564
     53 O         -2.191003   1.026459   -0.188089 O.3        1 UNL1     -0.4608
     54 C         -2.415621   -0.282968   0.147886 C.2        1 UNL1     0.3042
     55 O         -1.845922   -1.277261   -0.300067 O.2        1 UNL1     -0.2512
     56 C         -3.444253   -0.458633   1.228521 C.3        1 UNL1     0.0332
     57 C         -1.577755   2.203406   3.273386 C.3        1 UNL1     -0.0567
     58 C         1.857428   7.192541   -1.188615 C.3        1 UNL1     0.0210
     59 C         -1.138345   5.568954   2.946489 C.3        1 UNL1     0.0372
     60 C         0.655727   5.210652   0.586278 C.2        1 UNL1     -0.0208
     61 C         1.570432   5.644323   1.454604 C.2        1 UNL1     0.0882
     62 H         4.697356   2.723649   0.572947 H        1 UNL1     0.0365
     63 H         6.344644   3.595788   -0.261345 H        1 UNL1     0.0576
     64 H         8.345118   1.472575   -1.254748 H        1 UNL1     0.0615
     65 H         8.283963   4.59003   -1.443413 H        1 UNL1     0.0622
     66 H         -1.417757   5.332273   0.508751 H        1 UNL1     0.0645
     67 H         -1.848618   3.635003   -0.688679 H        1 UNL1     0.0362
     68 H         -2.5312   2.50343   1.063349 H        1 UNL1     0.0741
     69 H         -1.192745   0.522177   2.207711 H        1 UNL1     0.0359
     70 H         0.912903   0.72338   2.932471 H        1 UNL1     0.0600
     71 H         1.800132   -0.408618   1.308859 H        1 UNL1     0.0348
     72 H         3.36204   1.460154   1.295373 H        1 UNL1     0.0602
     73 H         0.772958   5.407313   -0.450462 H        1 UNL1     0.0628
     74 H         1.553558   5.434056   2.524529 H        1 UNL1     0.1022
     75 H         10.956952   2.230501   -3.443371 H        1 UNL1     0.0279
     76 H         10.799983   3.418471   -4.675194 H        1 UNL1     0.0279
     77 H         11.920582   3.638591   -3.271234 H        1 UNL1     0.0279
     78 H         9.07094   4.784801   -5.031655 H        1 UNL1     0.1553
     79 H         7.789713   3.315746   -4.675904 H        1 UNL1     0.1484
     80 H         4.039118   2.720276   -4.809863 H        1 UNL1     0.0317
     81 H         4.77641   4.246312   -5.276277 H        1 UNL1     0.0317
     82 H         6.68503   3.052545   -6.383432 H        1 UNL1     0.0428
     83 H         5.127591   2.579326   -7.02542 H        1 UNL1     0.0428
     84 H         6.904093   -0.059942   -4.200275 H        1 UNL1     0.0428
     85 H         7.816301   1.349053   -4.614681 H        1 UNL1     0.0428
     86 H         6.526207   1.424495   -2.480479 H        1 UNL1     0.0317
     87 H         5.029076   1.199991   -3.261855 H        1 UNL1     0.0317
     88 H         7.259632   0.863906   -7.386455 H        1 UNL1     0.0429
     89 H         6.894051   -0.622623   -6.507355 H        1 UNL1     0.0429
     90 H         4.35398   0.185282   -7.306177 H        1 UNL1     0.0308
     91 H         6.28075   1.032196   -9.548017 H        1 UNL1     0.0233
     92 H         4.511097   0.88654   -9.698376 H        1 UNL1     0.0233
     93 H         5.21058   2.115453   -8.666339 H        1 UNL1     0.0233
     94 H         4.644663   -1.486934   -9.170249 H        1 UNL1     0.0233
     95 H         6.34557   -1.604917   -8.693464 H        1 UNL1     0.0233
     96 H         5.06708   -2.061491   -7.544119 H        1 UNL1     0.0233
     97 H         4.16453   10.513199   -0.099082 H        1 UNL1     0.0280
     98 H         5.771594   11.129669   -0.372023 H        1 UNL1     0.0280
     99 H         4.583778   11.126106   -1.709487 H        1 UNL1     0.0280
     100 H         6.706419   10.706668   -3.023992 H        1 UNL1     0.2922
     101 H         4.704979   0.876962   2.429641 H        1 UNL1     0.0236
     102 H         6.021157   2.113306   2.501683 H        1 UNL1     0.0236
     103 H         6.322768   0.504475   1.921863 H        1 UNL1     0.0236
     104 H         4.331891   -0.567116   1.270712 H        1 UNL1     0.2098
     105 H         0.710846   1.280245   -0.930838 H        1 UNL1     0.0234
     106 H         1.289376   -0.407814   -1.013657 H        1 UNL1     0.0234
     107 H         0.0   -0.0   0.0 H        1 UNL1     0.0234
     108 H         1.206697   3.258826   1.74934 H        1 UNL1     0.2098
     109 H         1.084872   3.0457   -0.852526 H        1 UNL1     0.0234
     110 H         -0.17494   2.334257   -1.910601 H        1 UNL1     0.0234
     111 H         0.082185   4.043662   -1.884826 H        1 UNL1     0.0234
     112 H         -3.569262   -1.522058   1.454011 H        1 UNL1     0.0342
     113 H         -3.195027   0.104529   2.126619 H        1 UNL1     0.0342
     114 H         -4.404477   -0.078805   0.853202 H        1 UNL1     0.0342
     115 H         -2.642404   1.937154   3.326492 H        1 UNL1     0.0234
     116 H         -1.125752   1.942282   4.232321 H        1 UNL1     0.0234
     117 H         -1.636056   3.3038   3.21276 H        1 UNL1     0.0234
     118 H         0.957767   7.681414   -0.775553 H        1 UNL1     0.0309
     119 H         2.227113   7.77948   -2.035396 H        1 UNL1     0.0309
     120 H         1.466532   6.261222   -1.612824 H        1 UNL1     0.0309
     121 H         -0.332793   6.289833   2.809463 H        1 UNL1     0.0524
     122 H         -2.067937   6.036559   2.581465 H        1 UNL1     0.0524
     123 H         -1.253425   5.331262   4.000221 H        1 UNL1     0.0524
@<TRIPOS>BOND
     1     1     2    1
     2     1    42    1
     3     2     3    2
     4     3     4    1
     5     4     5    2
     6     5     7    1
     7     6    75    1
     8     6    76    1
     9     6    77    1
    10     7     9   am
    11     9    10    1
    12    10    11    2
    13    10    43    1
    14    11    14    1
    15    11    15    1
    16    12    13   ar
    17    12    27   ar
    18    12    43    1
    19    13    14    1
    20    13    30   ar
    21    14    17    2
    22    15    16    1
    23    16    17    1
    24    16    18    1
    25    16    22    1
    26    18    19    1
    27    19    20    1
    28    20    21    1
    29    21    22    1
    30    23    24    1
    31    23    88    1
    32    23    89    1
    33    24    25    1
    34    24    26    1
    35    24    90    1
    36    25    91    1
    37    25    92    1
    38    25    93    1
    39    26    94    1
    40    26    95    1
    41    26    96    1
    42    27    28   ar
    43    28    29   ar
    44    29    30   ar
    45    29    31    1
    46    30    33    1
    47    31    32    1
    48    32    33    1
    49    32    35    1
    50    34    97    1
    51    34    98    1
    52    34    99    1
    53    35    61    1
    54    36    37    1
    55    36    60    1
    56    37    38    1
    57    38    39    1
    58    39    40    1
    59    40    41    1
    60    41    42    1
    61    45   100    1
    62    47   101    1
    63    47   102    1
    64    47   103    1
    65    48   104    1
    66    49   105    1
    67    49   106    1
    68    49   107    1
    69    50   108    1
    70    51    59    1
    71    52   109    1
    72    52   110    1
    73    52   111    1
    74    53    54    1
    75    54    55    2
    76    54    56    1
    77    56   112    1
    78    56   113    1
    79    56   114    1
    80    57   115    1
    81    57   116    1
    82    57   117    1
    83    58   118    1
    84    58   119    1
    85    58   120    1
    86    59   121    1
    87    59   122    1
    88    59   123    1
    89    60    61    2
    90     1    47    1
    91     1    62    1
    92     2    63    1
    93     3    64    1
    94     4    65    1
    95     5     6    1
    96     7     8    2
    97     9    78    1
    98    15    79    1
    99    18    80    1
   100    18    81    1
   101    19    82    1
   102    19    83    1
   103    20    23    1
   104    21    84    1
   105    21    85    1
   106    22    86    1
   107    22    87    1
   108    27    45    1
   109    28    34    1
   110    32    58    1
   111    33    46    2
   112    36    51    1
   113    36    66    1
   114    37    52    1
   115    37    67    1
   116    38    53    1
   117    38    68    1
   118    42    48    1
   119    42    72    1
   120    43    44    2
   121    60    73    1
   122    61    74    1
   123    39    69    1
   124    39    57    1
   125    40    70    1
   126    40    50    1
   127    41    71    1
   128    41    49    1
