@<TRIPOS>MOLECULE
*****
 123 128 0 0 0
SMALL
GASTEIGER

@<TRIPOS>ATOM
     1 C         3.277268   4.206796   -1.249661 C.3        1 UNL1     0.0009
     2 C         3.431604   5.819022   -2.15185 C.2        1 UNL1     -0.0787
     3 C         3.888236   6.579309   -3.296183 C.2        1 UNL1     -0.0649
     4 C         3.591825   8.208527   -3.648529 C.2        1 UNL1     -0.0542
     5 C         3.566702   9.189475   -4.670383 C.2        1 UNL1     0.0115
     6 C         3.952115   9.474954   -6.147976 C.3        1 UNL1     -0.0348
     7 C         2.761538   10.554915   -4.416857 C.2        1 UNL1     0.2441
     8 O         3.312422   11.60873   -4.129583 O.2        1 UNL1     -0.2702
     9 N         1.409774   10.521629   -4.801275 N.am        1 UNL1     -0.2772
     10 C         0.627808   10.059715   -3.767599 C.2        1 UNL1     0.1049
     11 C         0.554435   8.747792   -3.634578 C.2        1 UNL1     0.0801
     12 C         0.180986   10.370916   -1.326116 C.ar        1 UNL1     0.0753
     13 C         0.319021   8.951886   -1.199981 C.ar        1 UNL1     0.0305
     14 C         0.379717   8.081818   -2.372307 C.2        1 UNL1     0.0924
     15 N         0.949664   7.771445   -4.469485 N.pl3        1 UNL1     -0.3170
     16 C         0.486722   6.519593   -3.93208 C.3        1 UNL1     0.1275
     17 N         0.406768   6.753981   -2.443325 N.2        1 UNL1     -0.2557
     18 C         -0.949891   6.326777   -4.408175 C.3        1 UNL1     0.0016
     19 C         -0.97381   6.405454   -5.92634 C.3        1 UNL1     0.0026
     20 N         -0.100834   5.370178   -6.462199 N.3        1 UNL1     -0.3018
     21 C         1.29083   5.435656   -6.011252 C.3        1 UNL1     0.0026
     22 C         1.291498   5.350273   -4.483965 C.3        1 UNL1     0.0016
     23 C         -0.279844   5.162562   -7.885398 C.3        1 UNL1     0.0012
     24 C         -1.637175   4.498889   -8.166372 C.3        1 UNL1     -0.0339
     25 C         -2.678294   5.526446   -8.639928 C.3        1 UNL1     -0.0615
     26 C         -1.467838   3.371523   -9.169941 C.3        1 UNL1     -0.0615
     27 C         0.002477   11.180997   -0.207179 C.ar        1 UNL1     0.1347
     28 C         -0.093673   10.684618   1.080615 C.ar        1 UNL1     0.0342
     29 C         0.093976   9.28999   1.185325 C.ar        1 UNL1     0.1435
     30 C         0.309732   8.470203   0.076894 C.ar        1 UNL1     0.0774
     31 O         -0.079448   8.641618   2.357734 O.3        1 UNL1     -0.4436
     32 C         -0.275177   7.268538   1.987309 C.3        1 UNL1     0.3143
     33 C         0.369761   7.130473   0.623049 C.2        1 UNL1     0.2504
     34 C         -0.532987   11.457511   2.292943 C.3        1 UNL1     -0.0327
     35 O         0.493066   6.468846   2.894804 O.2        1 UNL1     -0.4528
     36 C         -1.360114   3.170264   3.200041 C.3        1 UNL1     0.0854
     37 C         -1.767192   2.147914   2.070169 C.3        1 UNL1     0.0236
     38 C         -1.253524   0.646288   2.300405 C.3        1 UNL1     0.1131
     39 C         0.270479   0.379645   2.629932 C.3        1 UNL1     0.0200
     40 C         1.46901   1.181643   1.791625 C.3        1 UNL1     0.0661
     41 C         1.583537   1.313444   0.104283 C.3        1 UNL1     0.0091
     42 C         2.2513   2.664915   -0.941194 C.3        1 UNL1     0.0661
     43 C         0.144547   10.94225   -2.695244 C.2        1 UNL1     0.2131
     44 O         -0.344769   12.025466   -2.959723 O.2        1 UNL1     -0.2851
     45 O         -0.07765   12.556745   -0.412938 O.3        1 UNL1     -0.5056
     46 O         0.846054   6.141993   0.111281 O.2        1 UNL1     -0.2836
     47 C         4.637176   3.81281   -0.612945 C.3        1 UNL1     -0.0566
     48 O         3.053347   1.759228   -1.798847 O.3        1 UNL1     -0.3909
     49 C         0.267051   0.890807   -0.50869 C.3        1 UNL1     -0.0577
     50 O         1.753802   2.428111   2.394067 O.3        1 UNL1     -0.3910
     51 O         -0.45931   2.688339   4.171499 O.3        1 UNL1     -0.3753
     52 C         -1.775517   2.816014   0.656478 C.3        1 UNL1     -0.0564
     53 O         -1.933348   -0.362412   1.421377 O.3        1 UNL1     -0.4608
     54 C         -1.455318   -1.613055   1.129297 C.2        1 UNL1     0.3042
     55 O         -1.045313   -2.021098   0.043371 O.2        1 UNL1     -0.2512
     56 C         -1.397415   -2.52785   2.31947 C.3        1 UNL1     0.0332
     57 C         0.410278   0.282965   4.220304 C.3        1 UNL1     -0.0567
     58 C         -1.801561   7.068518   1.840086 C.3        1 UNL1     0.0210
     59 C         -0.550164   3.328784   5.443285 C.3        1 UNL1     0.0372
     60 C         -0.810971   4.463738   2.709606 C.2        1 UNL1     -0.0208
     61 C         0.248728   5.163231   3.117642 C.2        1 UNL1     0.0882
     62 H         2.703366   4.720543   -0.469013 H        1 UNL1     0.0365
     63 H         2.989841   6.502746   -1.423952 H        1 UNL1     0.0576
     64 H         4.35536   6.094301   -4.156223 H        1 UNL1     0.0615
     65 H         3.204577   8.61207   -2.709021 H        1 UNL1     0.0622
     66 H         -2.305639   3.415939   3.703699 H        1 UNL1     0.0645
     67 H         -2.857329   2.028766   2.196517 H        1 UNL1     0.0362
     68 H         -1.798628   0.405258   3.225763 H        1 UNL1     0.0741
     69 H         0.493805   -0.659292   2.427094 H        1 UNL1     0.0359
     70 H         2.33836   0.545959   2.046963 H        1 UNL1     0.0600
     71 H         2.218107   0.432617   -0.115767 H        1 UNL1     0.0348
     72 H         2.677461   2.81795   0.060946 H        1 UNL1     0.0602
     73 H         -1.482387   4.882187   2.001546 H        1 UNL1     0.0628
     74 H         1.014477   4.783754   3.795036 H        1 UNL1     0.1022
     75 H         4.40556   8.568603   -6.616964 H        1 UNL1     0.0279
     76 H         3.134166   9.705626   -6.826813 H        1 UNL1     0.0279
     77 H         4.773222   10.200827   -6.240667 H        1 UNL1     0.0279
     78 H         1.2924   9.881476   -5.583902 H        1 UNL1     0.1553
     79 H         1.124422   7.91185   -5.447584 H        1 UNL1     0.1484
     80 H         -1.317625   5.357066   -4.051526 H        1 UNL1     0.0317
     81 H         -1.609665   7.088976   -3.979919 H        1 UNL1     0.0317
     82 H         -0.675323   7.400745   -6.287192 H        1 UNL1     0.0428
     83 H         -2.007618   6.267227   -6.244435 H        1 UNL1     0.0428
     84 H         1.905928   4.602   -6.364075 H        1 UNL1     0.0428
     85 H         1.803888   6.327586   -6.396673 H        1 UNL1     0.0428
     86 H         2.323912   5.266926   -4.199078 H        1 UNL1     0.0317
     87 H         0.861366   4.39404   -4.161939 H        1 UNL1     0.0317
     88 H         -0.261563   6.143246   -8.37857 H        1 UNL1     0.0429
     89 H         0.544009   4.574016   -8.309254 H        1 UNL1     0.0429
     90 H         -2.004233   4.028424   -7.246511 H        1 UNL1     0.0308
     91 H         -2.336614   6.05542   -9.534659 H        1 UNL1     0.0233
     92 H         -3.632438   5.039146   -8.853834 H        1 UNL1     0.0233
     93 H         -2.887975   6.289054   -7.880126 H        1 UNL1     0.0233
     94 H         -2.446429   3.037063   -9.530959 H        1 UNL1     0.0233
     95 H         -0.892287   3.721516   -10.031456 H        1 UNL1     0.0233
     96 H         -0.952502   2.515536   -8.725326 H        1 UNL1     0.0233
     97 H         -0.57165   10.834391   3.181457 H        1 UNL1     0.0280
     98 H         0.155038   12.279016   2.531709 H        1 UNL1     0.0280
     99 H         -1.538248   11.875366   2.119909 H        1 UNL1     0.0280
     100 H         -0.83878   12.964858   -0.03911 H        1 UNL1     0.2922
     101 H         4.522058   2.893114   -0.039741 H        1 UNL1     0.0236
     102 H         5.080129   4.611894   -0.019447 H        1 UNL1     0.0236
     103 H         5.397662   3.574206   -1.375128 H        1 UNL1     0.0236
     104 H         3.956449   1.724076   -1.427173 H        1 UNL1     0.2098
     105 H         -0.540918   1.605624   -0.374391 H        1 UNL1     0.0234
     106 H         0.32884   0.582175   -1.552172 H        1 UNL1     0.0234
     107 H         0.0   -0.0   0.0 H        1 UNL1     0.0234
     108 H         0.957076   2.984901   2.299298 H        1 UNL1     0.2098
     109 H         -0.795937   3.236432   0.389301 H        1 UNL1     0.0234
     110 H         -2.113009   2.140407   -0.136867 H        1 UNL1     0.0234
     111 H         -2.482001   3.655442   0.609696 H        1 UNL1     0.0234
     112 H         -0.988984   -3.498765   2.023067 H        1 UNL1     0.0342
     113 H         -0.825008   -2.097106   3.139624 H        1 UNL1     0.0342
     114 H         -2.423245   -2.689371   2.678285 H        1 UNL1     0.0342
     115 H         -0.220378   -0.513884   4.638028 H        1 UNL1     0.0234
     116 H         1.431084   0.109287   4.566483 H        1 UNL1     0.0234
     117 H         0.016399   1.166756   4.751073 H        1 UNL1     0.0234
     118 H         -2.290305   6.877701   2.811541 H        1 UNL1     0.0309
     119 H         -2.299591   7.909796   1.347726 H        1 UNL1     0.0309
     120 H         -2.054209   6.179865   1.251383 H        1 UNL1     0.0309
     121 H         -0.269551   4.372889   5.307428 H        1 UNL1     0.0524
     122 H         -1.575583   3.310655   5.848533 H        1 UNL1     0.0524
     123 H         0.118182   2.8504   6.153606 H        1 UNL1     0.0524
@<TRIPOS>BOND
     1     1     2    1
     2     1    42    1
     3     2     3    2
     4     3     4    1
     5     4     5    2
     6     5     7    1
     7     6    75    1
     8     6    76    1
     9     6    77    1
    10     7     9   am
    11     9    10    1
    12    10    11    2
    13    10    43    1
    14    11    14    1
    15    11    15    1
    16    12    13   ar
    17    12    27   ar
    18    12    43    1
    19    13    14    1
    20    13    30   ar
    21    14    17    2
    22    15    16    1
    23    16    17    1
    24    16    18    1
    25    16    22    1
    26    18    19    1
    27    19    20    1
    28    20    21    1
    29    21    22    1
    30    23    24    1
    31    23    88    1
    32    23    89    1
    33    24    25    1
    34    24    26    1
    35    24    90    1
    36    25    91    1
    37    25    92    1
    38    25    93    1
    39    26    94    1
    40    26    95    1
    41    26    96    1
    42    27    28   ar
    43    28    29   ar
    44    29    30   ar
    45    29    31    1
    46    30    33    1
    47    31    32    1
    48    32    33    1
    49    32    35    1
    50    34    97    1
    51    34    98    1
    52    34    99    1
    53    35    61    1
    54    36    37    1
    55    36    60    1
    56    37    38    1
    57    38    39    1
    58    39    40    1
    59    40    41    1
    60    41    42    1
    61    45   100    1
    62    47   101    1
    63    47   102    1
    64    47   103    1
    65    48   104    1
    66    49   105    1
    67    49   106    1
    68    49   107    1
    69    50   108    1
    70    51    59    1
    71    52   109    1
    72    52   110    1
    73    52   111    1
    74    53    54    1
    75    54    55    2
    76    54    56    1
    77    56   112    1
    78    56   113    1
    79    56   114    1
    80    57   115    1
    81    57   116    1
    82    57   117    1
    83    58   118    1
    84    58   119    1
    85    58   120    1
    86    59   121    1
    87    59   122    1
    88    59   123    1
    89    60    61    2
    90     1    47    1
    91     1    62    1
    92     2    63    1
    93     3    64    1
    94     4    65    1
    95     5     6    1
    96     7     8    2
    97     9    78    1
    98    15    79    1
    99    18    80    1
   100    18    81    1
   101    19    82    1
   102    19    83    1
   103    20    23    1
   104    21    84    1
   105    21    85    1
   106    22    86    1
   107    22    87    1
   108    27    45    1
   109    28    34    1
   110    32    58    1
   111    33    46    2
   112    36    51    1
   113    36    66    1
   114    37    52    1
   115    37    67    1
   116    38    53    1
   117    38    68    1
   118    42    48    1
   119    42    72    1
   120    43    44    2
   121    60    73    1
   122    61    74    1
   123    39    69    1
   124    39    57    1
   125    40    70    1
   126    40    50    1
   127    41    71    1
   128    41    49    1
