@<TRIPOS>MOLECULE
*****
 123 128 0 0 0
SMALL
GASTEIGER

@<TRIPOS>ATOM
     1 C         5.1669   1.749998   0.489814 C.3        1 UNL1     0.0009
     2 C         6.602955   2.556988   -0.360805 C.2        1 UNL1     -0.0787
     3 C         7.884546   2.459536   -1.027193 C.2        1 UNL1     -0.0649
     4 C         8.761283   3.695328   -1.782512 C.2        1 UNL1     -0.0542
     5 C         9.78078   3.988784   -2.721441 C.2        1 UNL1     0.0115
     6 C         10.908747   3.364141   -3.587948 C.3        1 UNL1     -0.0348
     7 C         9.875408   5.472402   -3.327172 C.2        1 UNL1     0.2441
     8 O         10.699235   6.294077   -2.949435 O.2        1 UNL1     -0.2702
     9 N         9.124573   5.679801   -4.497379 N.am        1 UNL1     -0.2772
     10 C         7.841896   6.065942   -4.182803 C.2        1 UNL1     0.1049
     11 C         6.996526   5.094126   -3.891005 C.2        1 UNL1     0.0801
     12 C         6.543713   7.671443   -2.770563 C.ar        1 UNL1     0.0753
     13 C         5.78519   6.543064   -2.323337 C.ar        1 UNL1     0.0305
     14 C         5.902188   5.237753   -2.969499 C.2        1 UNL1     0.0924
     15 N         7.119451   3.765271   -4.050886 N.pl3        1 UNL1     -0.3170
     16 C         5.849911   3.165565   -3.736439 C.3        1 UNL1     0.1275
     17 N         5.213703   4.120076   -2.755689 N.2        1 UNL1     -0.2557
     18 C         4.996448   3.225088   -4.999672 C.3        1 UNL1     0.0016
     19 C         5.750989   2.541835   -6.129018 C.3        1 UNL1     0.0026
     20 N         6.021708   1.163598   -5.744047 N.3        1 UNL1     -0.3018
     21 C         6.785698   1.002738   -4.505172 C.3        1 UNL1     0.0026
     22 C         6.007286   1.692418   -3.383426 C.3        1 UNL1     0.0016
     23 C         6.465922   0.344799   -6.854401 C.3        1 UNL1     0.0012
     24 C         5.310083   0.095534   -7.836062 C.3        1 UNL1     -0.0339
     25 C         5.344951   1.088339   -9.009595 C.3        1 UNL1     -0.0615
     26 C         5.339366   -1.343688   -8.320377 C.3        1 UNL1     -0.0615
     27 C         6.338947   8.938781   -2.230153 C.ar        1 UNL1     0.1347
     28 C         5.380267   9.207526   -1.269549 C.ar        1 UNL1     0.0342
     29 C         4.679248   8.072623   -0.809407 C.ar        1 UNL1     0.1435
     30 C         4.898817   6.790937   -1.315658 C.ar        1 UNL1     0.0774
     31 O         3.638631   8.185423   0.04464 O.3        1 UNL1     -0.4436
     32 C         2.917237   6.952475   -0.097853 C.3        1 UNL1     0.3143
     33 C         3.930564   5.959951   -0.63103 C.2        1 UNL1     0.2504
     34 C         4.933249   10.573261   -0.827911 C.3        1 UNL1     -0.0327
     35 O         2.557355   6.514952   1.21832 O.2        1 UNL1     -0.4528
     36 C         -0.685329   4.582057   0.822084 C.3        1 UNL1     0.0854
     37 C         -0.990706   3.321875   -0.075808 C.3        1 UNL1     0.0236
     38 C         -1.590523   2.06023   0.71173 C.3        1 UNL1     0.1131
     39 C         -0.863988   1.528795   2.012496 C.3        1 UNL1     0.0200
     40 C         0.797265   1.383702   2.052786 C.3        1 UNL1     0.0661
     41 C         1.756291   0.615781   0.883094 C.3        1 UNL1     0.0091
     42 C         3.463503   0.979131   0.318465 C.3        1 UNL1     0.0661
     43 C         7.493274   7.46462   -3.892088 C.2        1 UNL1     0.2131
     44 O         7.892555   8.363202   -4.610325 O.2        1 UNL1     -0.2851
     45 O         7.150697   9.974368   -2.688473 O.3        1 UNL1     -0.5056
     46 O         3.946959   4.756351   -0.500912 O.2        1 UNL1     -0.2836
     47 C         5.56408   1.319857   1.927593 C.3        1 UNL1     -0.0566
     48 O         3.912507   -0.43189   0.399272 O.3        1 UNL1     -0.3909
     49 C         0.92157   0.383622   -0.356598 C.3        1 UNL1     -0.0577
     50 O         1.397308   2.601523   2.445957 O.3        1 UNL1     -0.3910
     51 O         -0.80869   4.391598   2.213464 O.3        1 UNL1     -0.3753
     52 C         0.053236   3.162321   -1.228924 C.3        1 UNL1     -0.0564
     53 O         -2.193267   1.02156   -0.188375 O.3        1 UNL1     -0.4608
     54 C         -2.427142   -0.285441   0.150715 C.2        1 UNL1     0.3042
     55 O         -1.857973   -1.284174   -0.287938 O.2        1 UNL1     -0.2512
     56 C         -3.466593   -0.451955   1.222409 C.3        1 UNL1     0.0332
     57 C         -1.584593   2.196907   3.274451 C.3        1 UNL1     -0.0567
     58 C         1.841446   7.197842   -1.181365 C.3        1 UNL1     0.0210
     59 C         -1.121862   5.570117   2.954329 C.3        1 UNL1     0.0372
     60 C         0.643376   5.21164   0.591159 C.2        1 UNL1     -0.0208
     61 C         1.556611   5.646667   1.460353 C.2        1 UNL1     0.0882
     62 H         4.690745   2.733989   0.57784 H        1 UNL1     0.0365
     63 H         6.336461   3.610656   -0.254808 H        1 UNL1     0.0576
     64 H         8.342365   1.492934   -1.24898 H        1 UNL1     0.0615
     65 H         8.274111   4.610402   -1.434968 H        1 UNL1     0.0622
     66 H         -1.430342   5.32854   0.512623 H        1 UNL1     0.0645
     67 H         -1.85664   3.631322   -0.686513 H        1 UNL1     0.0362
     68 H         -2.537544   2.496652   1.064163 H        1 UNL1     0.0741
     69 H         -1.19513   0.5175   2.207522 H        1 UNL1     0.0359
     70 H         0.909658   0.722934   2.933589 H        1 UNL1     0.0600
     71 H         1.80037   -0.405599   1.309472 H        1 UNL1     0.0348
     72 H         3.357964   1.466786   1.298449 H        1 UNL1     0.0602
     73 H         0.760708   5.409473   -0.445347 H        1 UNL1     0.0628
     74 H         1.53965   5.43543   2.530086 H        1 UNL1     0.1022
     75 H         10.951536   2.258382   -3.437947 H        1 UNL1     0.0279
     76 H         10.796037   3.450066   -4.666364 H        1 UNL1     0.0279
     77 H         11.914012   3.666506   -3.259744 H        1 UNL1     0.0279
     78 H         9.062558   4.810113   -5.022616 H        1 UNL1     0.1553
     79 H         7.784537   3.337794   -4.668831 H        1 UNL1     0.1484
     80 H         4.0354   2.733782   -4.805324 H        1 UNL1     0.0317
     81 H         4.769415   4.261921   -5.270015 H        1 UNL1     0.0317
     82 H         6.681381   3.073529   -6.377181 H        1 UNL1     0.0428
     83 H         5.125382   2.597273   -7.020417 H        1 UNL1     0.0428
     84 H         6.906463   -0.040343   -4.196612 H        1 UNL1     0.0428
     85 H         7.815636   1.371115   -4.609303 H        1 UNL1     0.0428
     86 H         6.524227   1.44172   -2.47573 H        1 UNL1     0.0317
     87 H         5.028037   1.21444   -3.258106 H        1 UNL1     0.0317
     88 H         7.261574   0.887097   -7.381797 H        1 UNL1     0.0429
     89 H         6.898956   -0.601037   -6.504186 H        1 UNL1     0.0429
     90 H         4.357278   0.214063   -7.306604 H        1 UNL1     0.0308
     91 H         6.297872   1.038112   -9.544873 H        1 UNL1     0.0233
     92 H         4.529772   0.888504   -9.708993 H        1 UNL1     0.0233
     93 H         5.218691   2.127241   -8.681606 H        1 UNL1     0.0233
     94 H         4.644503   -1.47491   -9.156906 H        1 UNL1     0.0233
     95 H         6.342772   -1.599122   -8.672362 H        1 UNL1     0.0233
     96 H         5.057023   -2.038407   -7.524377 H        1 UNL1     0.0233
     97 H         4.133992   10.523006   -0.094499 H        1 UNL1     0.0280
     98 H         5.743654   11.139799   -0.350905 H        1 UNL1     0.0280
     99 H         4.56779   11.141526   -1.698893 H        1 UNL1     0.0280
     100 H         6.683309   10.725539   -3.009273 H        1 UNL1     0.2922
     101 H         4.701638   0.88571   2.432932 H        1 UNL1     0.0236
     102 H         6.014919   2.125027   2.506756 H        1 UNL1     0.0236
     103 H         6.320555   0.517402   1.9257 H        1 UNL1     0.0236
     104 H         4.332192   -0.558309   1.272686 H        1 UNL1     0.2098
     105 H         0.708386   1.282692   -0.929343 H        1 UNL1     0.0234
     106 H         1.290857   -0.403953   -1.013318 H        1 UNL1     0.0234
     107 H         0.0   -0.0   0.0 H        1 UNL1     0.0234
     108 H         1.203624   3.258421   1.749725 H        1 UNL1     0.2098
     109 H         1.078291   3.048938   -0.849295 H        1 UNL1     0.0234
     110 H         -0.179308   2.335509   -1.908666 H        1 UNL1     0.0234
     111 H         0.073855   4.04548   -1.881266 H        1 UNL1     0.0234
     112 H         -3.598543   -1.513856   1.451103 H        1 UNL1     0.0342
     113 H         -3.223189   0.113811   2.120465 H        1 UNL1     0.0342
     114 H         -4.421537   -0.069361   0.836573 H        1 UNL1     0.0342
     115 H         -2.654128   1.948307   3.312955 H        1 UNL1     0.0234
     116 H         -1.147581   1.916771   4.234968 H        1 UNL1     0.0234
     117 H         -1.623529   3.298777   3.226415 H        1 UNL1     0.0234
     118 H         0.939816   7.682868   -0.768062 H        1 UNL1     0.0309
     119 H         2.209802   7.787669   -2.026717 H        1 UNL1     0.0309
     120 H         1.454035   6.266031   -1.607682 H        1 UNL1     0.0309
     121 H         -0.301081   6.273588   2.817201 H        1 UNL1     0.0524
     122 H         -2.041976   6.059085   2.593306 H        1 UNL1     0.0524
     123 H         -1.239244   5.331796   4.007666 H        1 UNL1     0.0524
@<TRIPOS>BOND
     1     1     2    1
     2     1    42    1
     3     2     3    2
     4     3     4    1
     5     4     5    2
     6     5     7    1
     7     6    75    1
     8     6    76    1
     9     6    77    1
    10     7     9   am
    11     9    10    1
    12    10    11    2
    13    10    43    1
    14    11    14    1
    15    11    15    1
    16    12    13   ar
    17    12    27   ar
    18    12    43    1
    19    13    14    1
    20    13    30   ar
    21    14    17    2
    22    15    16    1
    23    16    17    1
    24    16    18    1
    25    16    22    1
    26    18    19    1
    27    19    20    1
    28    20    21    1
    29    21    22    1
    30    23    24    1
    31    23    88    1
    32    23    89    1
    33    24    25    1
    34    24    26    1
    35    24    90    1
    36    25    91    1
    37    25    92    1
    38    25    93    1
    39    26    94    1
    40    26    95    1
    41    26    96    1
    42    27    28   ar
    43    28    29   ar
    44    29    30   ar
    45    29    31    1
    46    30    33    1
    47    31    32    1
    48    32    33    1
    49    32    35    1
    50    34    97    1
    51    34    98    1
    52    34    99    1
    53    35    61    1
    54    36    37    1
    55    36    60    1
    56    37    38    1
    57    38    39    1
    58    39    40    1
    59    40    41    1
    60    41    42    1
    61    45   100    1
    62    47   101    1
    63    47   102    1
    64    47   103    1
    65    48   104    1
    66    49   105    1
    67    49   106    1
    68    49   107    1
    69    50   108    1
    70    51    59    1
    71    52   109    1
    72    52   110    1
    73    52   111    1
    74    53    54    1
    75    54    55    2
    76    54    56    1
    77    56   112    1
    78    56   113    1
    79    56   114    1
    80    57   115    1
    81    57   116    1
    82    57   117    1
    83    58   118    1
    84    58   119    1
    85    58   120    1
    86    59   121    1
    87    59   122    1
    88    59   123    1
    89    60    61    2
    90     1    47    1
    91     1    62    1
    92     2    63    1
    93     3    64    1
    94     4    65    1
    95     5     6    1
    96     7     8    2
    97     9    78    1
    98    15    79    1
    99    18    80    1
   100    18    81    1
   101    19    82    1
   102    19    83    1
   103    20    23    1
   104    21    84    1
   105    21    85    1
   106    22    86    1
   107    22    87    1
   108    27    45    1
   109    28    34    1
   110    32    58    1
   111    33    46    2
   112    36    51    1
   113    36    66    1
   114    37    52    1
   115    37    67    1
   116    38    53    1
   117    38    68    1
   118    42    48    1
   119    42    72    1
   120    43    44    2
   121    60    73    1
   122    61    74    1
   123    39    69    1
   124    39    57    1
   125    40    70    1
   126    40    50    1
   127    41    71    1
   128    41    49    1
