@<TRIPOS>MOLECULE
*****
 123 128 0 0 0
SMALL
GASTEIGER

@<TRIPOS>ATOM
     1 C         2.34214   4.457069   1.159355 C.3        1 UNL1     0.0009
     2 C         3.513795   5.659304   0.372658 C.2        1 UNL1     -0.0787
     3 C         4.80242   6.318364   0.339016 C.2        1 UNL1     -0.0649
     4 C         5.401728   7.372107   -0.842852 C.2        1 UNL1     -0.0542
     5 C         6.569992   7.947875   -1.400282 C.2        1 UNL1     0.0115
     6 C         8.100011   8.128412   -1.200851 C.3        1 UNL1     -0.0348
     7 C         6.489807   8.607159   -2.861756 C.2        1 UNL1     0.2441
     8 O         6.429019   9.815254   -3.044345 O.2        1 UNL1     -0.2702
     9 N         6.756793   7.723513   -3.921963 N.am        1 UNL1     -0.2772
     10 C         5.602181   7.091195   -4.322418 C.2        1 UNL1     0.1049
     11 C         5.2434   6.033443   -3.617677 C.2        1 UNL1     0.0801
     12 C         3.221554   7.523755   -4.957118 C.ar        1 UNL1     0.0753
     13 C         2.867811   6.50298   -4.018241 C.ar        1 UNL1     0.0305
     14 C         3.8768   5.634791   -3.415546 C.2        1 UNL1     0.0924
     15 N         5.928869   5.337492   -2.694469 N.pl3        1 UNL1     -0.3170
     16 C         5.152707   4.174415   -2.355238 C.3        1 UNL1     0.1275
     17 N         3.723585   4.585615   -2.612626 N.2        1 UNL1     -0.2557
     18 C         5.476126   3.098231   -3.387193 C.3        1 UNL1     0.0016
     19 C         6.979139   2.869197   -3.3963 C.3        1 UNL1     0.0026
     20 N         7.397942   2.459365   -2.063008 N.3        1 UNL1     -0.3018
     21 C         7.074152   3.403902   -0.991851 C.3        1 UNL1     0.0026
     22 C         5.559233   3.615752   -0.997969 C.3        1 UNL1     0.0016
     23 C         8.747071   1.93058   -2.03333 C.3        1 UNL1     0.0012
     24 C         8.884849   0.75105   -3.008769 C.3        1 UNL1     -0.0339
     25 C         9.581701   1.177035   -4.311455 C.3        1 UNL1     -0.0615
     26 C         9.613192   -0.39917   -2.3355 C.3        1 UNL1     -0.0615
     27 C         2.245694   8.266071   -5.618012 C.ar        1 UNL1     0.1347
     28 C         0.888873   8.052184   -5.452663 C.ar        1 UNL1     0.0342
     29 C         0.564172   7.075711   -4.48714 C.ar        1 UNL1     0.1435
     30 C         1.530959   6.349311   -3.790803 C.ar        1 UNL1     0.0774
     31 O         -0.711058   6.675334   -4.290945 O.3        1 UNL1     -0.4436
     32 C         -0.5951   5.405892   -3.630683 C.3        1 UNL1     0.3143
     33 C         0.771944   5.422699   -2.977137 C.2        1 UNL1     0.2504
     34 C         -0.205312   8.630259   -6.306296 C.3        1 UNL1     -0.0327
     35 O         -1.562536   5.385483   -2.573846 O.2        1 UNL1     -0.4528
     36 C         -2.56559   1.749079   -2.151313 C.3        1 UNL1     0.0854
     37 C         -1.660476   0.495658   -1.8395 C.3        1 UNL1     0.0236
     38 C         -2.101305   -0.352827   -0.552066 C.3        1 UNL1     0.1131
     39 C         -2.351821   0.383458   0.825394 C.3        1 UNL1     0.0200
     40 C         -1.299129   1.563436   1.356364 C.3        1 UNL1     0.0661
     41 C         0.389857   1.426179   1.434442 C.3        1 UNL1     0.0091
     42 C         1.697982   2.69458   1.221443 C.3        1 UNL1     0.0661
     43 C         4.660684   7.704965   -5.270693 C.2        1 UNL1     0.2131
     44 O         5.066121   8.229894   -6.291872 O.2        1 UNL1     -0.2851
     45 O         2.674828   9.271722   -6.481696 O.3        1 UNL1     -0.5056
     46 O         1.144186   4.823384   -1.993211 O.2        1 UNL1     -0.2836
     47 C         1.755485   5.053067   2.467256 C.3        1 UNL1     -0.0566
     48 O         2.449391   2.287308   2.433314 O.3        1 UNL1     -0.3909
     49 C         0.81813   0.212851   0.639513 C.3        1 UNL1     -0.0577
     50 O         -1.657577   2.826825   0.833788 O.3        1 UNL1     -0.3910
     51 O         -3.5317   2.069281   -1.175848 O.3        1 UNL1     -0.3753
     52 C         -0.158976   0.761753   -2.185393 C.3        1 UNL1     -0.0564
     53 O         -1.461516   -1.708392   -0.478304 O.3        1 UNL1     -0.4608
     54 C         -0.459833   -2.068965   0.384568 C.2        1 UNL1     0.3042
     55 O         0.712184   -1.694951   0.366441 O.2        1 UNL1     -0.2512
     56 C         -0.915682   -2.981132   1.487686 C.3        1 UNL1     0.0332
     57 C         -3.919821   0.678892   0.936157 C.3        1 UNL1     -0.0567
     58 C         -0.602981   4.331834   -4.743277 C.3        1 UNL1     0.0210
     59 C         -3.021264   2.212897   0.148801 C.3        1 UNL1     0.0372
     60 C         -1.82182   3.003902   -2.446924 C.2        1 UNL1     -0.0208
     61 C         -2.021774   4.249604   -2.014502 C.2        1 UNL1     0.0882
     62 H         1.617675   4.672594   0.364741 H        1 UNL1     0.0365
     63 H         2.880237   6.076785   -0.412699 H        1 UNL1     0.0576
     64 H         5.601458   6.04893   1.033314 H        1 UNL1     0.0615
     65 H         4.517014   7.638031   -1.427701 H        1 UNL1     0.0622
     66 H         -3.092245   1.485245   -3.079253 H        1 UNL1     0.0645
     67 H         -1.88952   -0.210346   -2.656603 H        1 UNL1     0.0362
     68 H         -3.09365   -0.692044   -0.886289 H        1 UNL1     0.0741
     69 H         -2.311302   -0.346658   1.622701 H        1 UNL1     0.0359
     70 H         -1.59019   1.612646   2.423099 H        1 UNL1     0.0600
     71 H         0.506047   1.057612   2.472525 H        1 UNL1     0.0348
     72 H         0.772481   3.247074   1.439417 H        1 UNL1     0.0602
     73 H         -1.107423   2.815101   -3.209315 H        1 UNL1     0.0628
     74 H         -2.692106   4.518597   -1.197474 H        1 UNL1     0.1022
     75 H         8.305553   8.804627   -0.336259 H        1 UNL1     0.0279
     76 H         8.663822   7.235784   -0.939314 H        1 UNL1     0.0279
     77 H         8.574127   8.680612   -2.025465 H        1 UNL1     0.0279
     78 H         7.408055   7.005008   -3.612631 H        1 UNL1     0.1553
     79 H         6.927193   5.37173   -2.599025 H        1 UNL1     0.1484
     80 H         4.932775   2.181073   -3.129592 H        1 UNL1     0.0317
     81 H         5.133315   3.396191   -4.383863 H        1 UNL1     0.0317
     82 H         7.525574   3.765535   -3.724782 H        1 UNL1     0.0428
     83 H         7.187885   2.099655   -4.140128 H        1 UNL1     0.0428
     84 H         7.327267   3.037104   0.007751 H        1 UNL1     0.0428
     85 H         7.643878   4.338792   -1.085176 H        1 UNL1     0.0428
     86 H         5.345444   4.202878   -0.124146 H        1 UNL1     0.0317
     87 H         5.047334   2.666616   -0.797481 H        1 UNL1     0.0317
     88 H         9.433194   2.727293   -2.349207 H        1 UNL1     0.0429
     89 H         9.038938   1.639363   -1.016088 H        1 UNL1     0.0429
     90 H         7.886611   0.370225   -3.255158 H        1 UNL1     0.0308
     91 H         9.263969   2.176232   -4.624113 H        1 UNL1     0.0233
     92 H         10.667378   1.16766   -4.189692 H        1 UNL1     0.0233
     93 H         9.361516   0.498111   -5.144171 H        1 UNL1     0.0233
     94 H         9.83012   -0.149327   -1.291298 H        1 UNL1     0.0233
     95 H         8.985965   -1.294975   -2.344494 H        1 UNL1     0.0233
     96 H         10.55693   -0.623959   -2.840274 H        1 UNL1     0.0233
     97 H         -1.18774   8.284759   -5.998572 H        1 UNL1     0.0280
     98 H         -0.240291   9.726006   -6.248238 H        1 UNL1     0.0280
     99 H         -0.048655   8.335281   -7.356792 H        1 UNL1     0.0280
     100 H         3.600501   9.439606   -6.457913 H        1 UNL1     0.2922
     101 H         0.845512   5.608904   2.2422 H        1 UNL1     0.0236
     102 H         2.473871   5.653051   3.02486 H        1 UNL1     0.0236
     103 H         1.436635   4.268287   3.173407 H        1 UNL1     0.0236
     104 H         2.20718   1.361969   2.633445 H        1 UNL1     0.2098
     105 H         1.695036   0.370628   0.016653 H        1 UNL1     0.0234
     106 H         0.930207   -0.699209   1.225612 H        1 UNL1     0.0234
     107 H         0.0   -0.0   0.0 H        1 UNL1     0.0234
     108 H         -2.463179   3.117055   1.303405 H        1 UNL1     0.2098
     109 H         0.091384   0.459203   -3.211792 H        1 UNL1     0.0234
     110 H         0.141203   1.803143   -2.026825 H        1 UNL1     0.0234
     111 H         0.514135   0.188557   -1.534 H        1 UNL1     0.0234
     112 H         -0.833934   -2.4694   2.451425 H        1 UNL1     0.0342
     113 H         -1.92819   -3.347168   1.324321 H        1 UNL1     0.0342
     114 H         -0.246533   -3.852255   1.511103 H        1 UNL1     0.0342
     115 H         -4.127862   1.754517   1.019446 H        1 UNL1     0.0234
     116 H         -4.504164   0.295411   0.097388 H        1 UNL1     0.0234
     117 H         -4.373856   0.301216   1.868442 H        1 UNL1     0.0234
     118 H         -0.601994   4.78008   -5.752277 H        1 UNL1     0.0309
     119 H         0.229457   3.625417   -4.664388 H        1 UNL1     0.0309
     120 H         -1.516024   3.726511   -4.736723 H        1 UNL1     0.0309
     121 H         -3.817687   2.628076   0.765805 H        1 UNL1     0.0524
     122 H         -2.728156   1.246292   0.591295 H        1 UNL1     0.0524
     123 H         -2.16127   2.8766   0.150299 H        1 UNL1     0.0524
@<TRIPOS>BOND
     1     1     2    1
     2     1    42    1
     3     2     3    2
     4     3     4    1
     5     4     5    2
     6     5     7    1
     7     6    75    1
     8     6    76    1
     9     6    77    1
    10     7     9   am
    11     9    10    1
    12    10    11    2
    13    10    43    1
    14    11    14    1
    15    11    15    1
    16    12    13   ar
    17    12    27   ar
    18    12    43    1
    19    13    14    1
    20    13    30   ar
    21    14    17    2
    22    15    16    1
    23    16    17    1
    24    16    18    1
    25    16    22    1
    26    18    19    1
    27    19    20    1
    28    20    21    1
    29    21    22    1
    30    23    24    1
    31    23    88    1
    32    23    89    1
    33    24    25    1
    34    24    26    1
    35    24    90    1
    36    25    91    1
    37    25    92    1
    38    25    93    1
    39    26    94    1
    40    26    95    1
    41    26    96    1
    42    27    28   ar
    43    28    29   ar
    44    29    30   ar
    45    29    31    1
    46    30    33    1
    47    31    32    1
    48    32    33    1
    49    32    35    1
    50    34    97    1
    51    34    98    1
    52    34    99    1
    53    35    61    1
    54    36    37    1
    55    36    60    1
    56    37    38    1
    57    38    39    1
    58    39    40    1
    59    40    41    1
    60    41    42    1
    61    45   100    1
    62    47   101    1
    63    47   102    1
    64    47   103    1
    65    48   104    1
    66    49   105    1
    67    49   106    1
    68    49   107    1
    69    50   108    1
    70    51    59    1
    71    52   109    1
    72    52   110    1
    73    52   111    1
    74    53    54    1
    75    54    55    2
    76    54    56    1
    77    56   112    1
    78    56   113    1
    79    56   114    1
    80    57   115    1
    81    57   116    1
    82    57   117    1
    83    58   118    1
    84    58   119    1
    85    58   120    1
    86    59   121    1
    87    59   122    1
    88    59   123    1
    89    60    61    2
    90     1    47    1
    91     1    62    1
    92     2    63    1
    93     3    64    1
    94     4    65    1
    95     5     6    1
    96     7     8    2
    97     9    78    1
    98    15    79    1
    99    18    80    1
   100    18    81    1
   101    19    82    1
   102    19    83    1
   103    20    23    1
   104    21    84    1
   105    21    85    1
   106    22    86    1
   107    22    87    1
   108    27    45    1
   109    28    34    1
   110    32    58    1
   111    33    46    2
   112    36    51    1
   113    36    66    1
   114    37    52    1
   115    37    67    1
   116    38    53    1
   117    38    68    1
   118    42    48    1
   119    42    72    1
   120    43    44    2
   121    60    73    1
   122    61    74    1
   123    39    69    1
   124    39    57    1
   125    40    70    1
   126    40    50    1
   127    41    71    1
   128    41    49    1
