@<TRIPOS>MOLECULE
*****
 123 128 0 0 0
SMALL
GASTEIGER

@<TRIPOS>ATOM
     1 C         3.437825   -3.071432   -0.729941 C.3        1 UNL1     0.0009
     2 C         5.272213   -3.140849   -0.47064 C.2        1 UNL1     -0.0787
     3 C         6.614766   -2.809179   -0.899118 C.2        1 UNL1     -0.0649
     4 C         8.068255   -3.088524   -0.077112 C.2        1 UNL1     -0.0542
     5 C         9.429134   -2.711323   0.036047 C.2        1 UNL1     0.0115
     6 C         10.564772   -1.888441   -0.632171 C.3        1 UNL1     -0.0348
     7 C         10.23352   -3.0961   1.370925 C.2        1 UNL1     0.2441
     8 O         11.021483   -4.030169   1.427085 O.2        1 UNL1     -0.2702
     9 N         10.171393   -2.133992   2.393979 N.am        1 UNL1     -0.2772
     10 C         9.070466   -2.350425   3.190496 C.2        1 UNL1     0.1049
     11 C         7.926862   -1.859233   2.748768 C.2        1 UNL1     0.0801
     12 C         7.858956   -4.134695   4.45776 C.ar        1 UNL1     0.0753
     13 C         6.672596   -3.694975   3.788579 C.ar        1 UNL1     0.0305
     14 C         6.646194   -2.45758   3.011914 C.2        1 UNL1     0.0924
     15 N         7.686985   -0.996666   1.746288 N.pl3        1 UNL1     -0.3170
     16 C         6.290658   -0.651997   1.787841 C.3        1 UNL1     0.1275
     17 N         5.623731   -1.852075   2.414535 N.2        1 UNL1     -0.2557
     18 C         6.136179   0.489088   2.788721 C.3        1 UNL1     0.0016
     19 C         7.052024   1.628878   2.371953 C.3        1 UNL1     0.0026
     20 N         6.685143   2.056589   1.029012 N.3        1 UNL1     -0.3018
     21 C         6.743044   1.010597   0.005822 C.3        1 UNL1     0.0026
     22 C         5.812317   -0.122076   0.442507 C.3        1 UNL1     0.0016
     23 C         7.288235   3.320383   0.655185 C.3        1 UNL1     0.0012
     24 C         8.799127   3.299975   0.935441 C.3        1 UNL1     -0.0339
     25 C         9.578357   2.664897   -0.227973 C.3        1 UNL1     -0.0615
     26 C         9.291789   4.704559   1.237451 C.3        1 UNL1     -0.0615
     27 C         7.845271   -5.248764   5.293691 C.ar        1 UNL1     0.1347
     28 C         6.701221   -5.976708   5.568092 C.ar        1 UNL1     0.0342
     29 C         5.555838   -5.55496   4.860002 C.ar        1 UNL1     0.1435
     30 C         5.562742   -4.462821   3.991438 C.ar        1 UNL1     0.0774
     31 O         4.340293   -6.092652   5.101548 O.3        1 UNL1     -0.4436
     32 C         3.408886   -5.131071   4.58317 C.3        1 UNL1     0.3143
     33 C         4.188461   -4.340455   3.551957 C.2        1 UNL1     0.2504
     34 C         6.55622   -7.020289   6.640479 C.3        1 UNL1     -0.0327
     35 O         2.397044   -5.857221   3.874555 O.2        1 UNL1     -0.4528
     36 C         -0.773389   -3.792744   4.181774 C.3        1 UNL1     0.0854
     37 C         -1.03353   -2.296871   3.754909 C.3        1 UNL1     0.0236
     38 C         -2.274936   -2.083393   2.762395 C.3        1 UNL1     0.1131
     39 C         -2.390811   -2.959357   1.450324 C.3        1 UNL1     0.0200
     40 C         -1.048967   -3.238413   0.499524 C.3        1 UNL1     0.0661
     41 C         0.030945   -2.058713   -0.065903 C.3        1 UNL1     0.0091
     42 C         1.832432   -2.15602   -0.398439 C.3        1 UNL1     0.0661
     43 C         9.084432   -3.312238   4.302734 C.2        1 UNL1     0.2131
     44 O         10.013307   -3.333494   5.089803 O.2        1 UNL1     -0.2851
     45 O         9.052594   -5.637175   5.870706 O.3        1 UNL1     -0.5056
     46 O         3.771542   -3.759196   2.57514 O.2        1 UNL1     -0.2836
     47 C         3.015508   -4.048965   -1.859569 C.3        1 UNL1     -0.0566
     48 O         1.738163   -1.502842   -1.72644 O.3        1 UNL1     -0.3909
     49 C         -0.208613   -0.773335   0.694301 C.3        1 UNL1     -0.0577
     50 O         -0.33371   -4.366801   0.960905 O.3        1 UNL1     -0.3910
     51 O         -1.5411   -4.766985   3.511769 O.3        1 UNL1     -0.3753
     52 C         0.300154   -1.495034   3.602295 C.3        1 UNL1     -0.0564
     53 O         -2.716635   -0.653338   2.65208 O.3        1 UNL1     -0.4608
     54 C         -3.727193   -0.19297   1.849107 C.2        1 UNL1     0.3042
     55 O         -4.797022   0.300486   2.203797 O.2        1 UNL1     -0.2512
     56 C         -3.414301   -0.274733   0.382094 C.3        1 UNL1     0.0332
     57 C         -3.340258   -4.202795   1.782867 C.3        1 UNL1     -0.0567
     58 C         3.046195   -4.195146   5.759618 C.3        1 UNL1     0.0210
     59 C         -1.050419   -6.101653   3.629065 C.3        1 UNL1     0.0372
     60 C         0.645982   -4.232733   4.098361 C.2        1 UNL1     -0.0208
     61 C         1.175888   -5.354743   3.609447 C.2        1 UNL1     0.0882
     62 H         3.303035   -3.609486   0.216125 H        1 UNL1     0.0365
     63 H         5.328539   -3.774684   0.416801 H        1 UNL1     0.0576
     64 H         6.797546   -2.170942   -1.766501 H        1 UNL1     0.0615
     65 H         7.790027   -3.791583   0.712685 H        1 UNL1     0.0622
     66 H         -1.036727   -3.825194   5.248378 H        1 UNL1     0.0645
     67 H         -1.404189   -1.815643   4.676642 H        1 UNL1     0.0362
     68 H         -3.092896   -2.425371   3.414709 H        1 UNL1     0.0741
     69 H         -3.06993   -2.470686   0.764462 H        1 UNL1     0.0359
     70 H         -1.541903   -3.584149   -0.429207 H        1 UNL1     0.0600
     71 H         -0.434552   -1.822968   -1.042988 H        1 UNL1     0.0348
     72 H         1.469301   -3.193981   -0.38899 H        1 UNL1     0.0602
     73 H         1.256788   -3.544013   4.627349 H        1 UNL1     0.0628
     74 H         0.63134   -6.082186   3.00651 H        1 UNL1     0.1022
     75 H         10.165756   -0.92808   -1.039023 H        1 UNL1     0.0279
     76 H         11.367545   -1.551158   0.019645 H        1 UNL1     0.0279
     77 H         10.955142   -2.364464   -1.543606 H        1 UNL1     0.0279
     78 H         10.076602   -1.206354   1.985838 H        1 UNL1     0.1553
     79 H         8.38467   -0.392445   1.35248 H        1 UNL1     0.1484
     80 H         5.086516   0.806124   2.810255 H        1 UNL1     0.0317
     81 H         6.384052   0.156632   3.802468 H        1 UNL1     0.0317
     82 H         8.111697   1.337682   2.418969 H        1 UNL1     0.0428
     83 H         6.927444   2.431043   3.100007 H        1 UNL1     0.0428
     84 H         6.386791   1.337309   -0.976092 H        1 UNL1     0.0428
     85 H         7.773545   0.67834   -0.181235 H        1 UNL1     0.0428
     86 H         5.777233   -0.804002   -0.38679 H        1 UNL1     0.0317
     87 H         4.781387   0.245905   0.512285 H        1 UNL1     0.0317
     88 H         7.134529   3.466798   -0.421956 H        1 UNL1     0.0429
     89 H         6.801946   4.161042   1.166644 H        1 UNL1     0.0429
     90 H         8.988205   2.714618   1.843086 H        1 UNL1     0.0308
     91 H         10.525575   3.183948   -0.402514 H        1 UNL1     0.0233
     92 H         9.779132   1.609754   -0.028041 H        1 UNL1     0.0233
     93 H         9.019768   2.696487   -1.171274 H        1 UNL1     0.0233
     94 H         8.78608   5.429468   0.590458 H        1 UNL1     0.0233
     95 H         9.06639   4.964432   2.275538 H        1 UNL1     0.0233
     96 H         10.370122   4.792156   1.077793 H        1 UNL1     0.0233
     97 H         7.50267   -7.240778   7.125088 H        1 UNL1     0.0280
     98 H         5.876371   -6.699714   7.440663 H        1 UNL1     0.0280
     99 H         6.16903   -7.952739   6.198081 H        1 UNL1     0.0280
     100 H         9.007857   -6.429624   6.37632 H        1 UNL1     0.2922
     101 H         3.489332   -3.755387   -2.79603 H        1 UNL1     0.0236
     102 H         1.935078   -4.146039   -1.960717 H        1 UNL1     0.0236
     103 H         3.373764   -5.075396   -1.674403 H        1 UNL1     0.0236
     104 H         0.830836   -1.643982   -2.060819 H        1 UNL1     0.2098
     105 H         -1.229919   -0.641206   1.042565 H        1 UNL1     0.0234
     106 H         0.494434   -0.586515   1.505934 H        1 UNL1     0.0234
     107 H         0.0   0.0   0.0 H        1 UNL1     0.0234
     108 H         0.601926   -4.23891   0.711912 H        1 UNL1     0.2098
     109 H         0.419856   -0.733823   4.385839 H        1 UNL1     0.0234
     110 H         1.18751   -2.13664   3.576139 H        1 UNL1     0.0234
     111 H         0.337801   -0.949692   2.64986 H        1 UNL1     0.0234
     112 H         -2.732185   -1.109182   0.192994 H        1 UNL1     0.0342
     113 H         -4.314568   -0.360846   -0.224493 H        1 UNL1     0.0342
     114 H         -2.902351   0.651959   0.088302 H        1 UNL1     0.0342
     115 H         -3.646634   -4.212008   2.837967 H        1 UNL1     0.0234
     116 H         -4.247705   -4.242949   1.177081 H        1 UNL1     0.0234
     117 H         -2.83201   -5.178891   1.700023 H        1 UNL1     0.0234
     118 H         3.83883   -4.168463   6.527748 H        1 UNL1     0.0309
     119 H         2.821372   -3.172247   5.441289 H        1 UNL1     0.0309
     120 H         2.167355   -4.539824   6.315446 H        1 UNL1     0.0309
     121 H         -1.852622   -6.775388   3.329218 H        1 UNL1     0.0524
     122 H         -0.191458   -6.29156   2.964116 H        1 UNL1     0.0524
     123 H         -0.75419   -6.304444   4.654355 H        1 UNL1     0.0524
@<TRIPOS>BOND
     1     1     2    1
     2     1    42    1
     3     2     3    2
     4     3     4    1
     5     4     5    2
     6     5     7    1
     7     6    75    1
     8     6    76    1
     9     6    77    1
    10     7     9   am
    11     9    10    1
    12    10    11    2
    13    10    43    1
    14    11    14    1
    15    11    15    1
    16    12    13   ar
    17    12    27   ar
    18    12    43    1
    19    13    14    1
    20    13    30   ar
    21    14    17    2
    22    15    16    1
    23    16    17    1
    24    16    18    1
    25    16    22    1
    26    18    19    1
    27    19    20    1
    28    20    21    1
    29    21    22    1
    30    23    24    1
    31    23    88    1
    32    23    89    1
    33    24    25    1
    34    24    26    1
    35    24    90    1
    36    25    91    1
    37    25    92    1
    38    25    93    1
    39    26    94    1
    40    26    95    1
    41    26    96    1
    42    27    28   ar
    43    28    29   ar
    44    29    30   ar
    45    29    31    1
    46    30    33    1
    47    31    32    1
    48    32    33    1
    49    32    35    1
    50    34    97    1
    51    34    98    1
    52    34    99    1
    53    35    61    1
    54    36    37    1
    55    36    60    1
    56    37    38    1
    57    38    39    1
    58    39    40    1
    59    40    41    1
    60    41    42    1
    61    45   100    1
    62    47   101    1
    63    47   102    1
    64    47   103    1
    65    48   104    1
    66    49   105    1
    67    49   106    1
    68    49   107    1
    69    50   108    1
    70    51    59    1
    71    52   109    1
    72    52   110    1
    73    52   111    1
    74    53    54    1
    75    54    55    2
    76    54    56    1
    77    56   112    1
    78    56   113    1
    79    56   114    1
    80    57   115    1
    81    57   116    1
    82    57   117    1
    83    58   118    1
    84    58   119    1
    85    58   120    1
    86    59   121    1
    87    59   122    1
    88    59   123    1
    89    60    61    2
    90     1    47    1
    91     1    62    1
    92     2    63    1
    93     3    64    1
    94     4    65    1
    95     5     6    1
    96     7     8    2
    97     9    78    1
    98    15    79    1
    99    18    80    1
   100    18    81    1
   101    19    82    1
   102    19    83    1
   103    20    23    1
   104    21    84    1
   105    21    85    1
   106    22    86    1
   107    22    87    1
   108    27    45    1
   109    28    34    1
   110    32    58    1
   111    33    46    2
   112    36    51    1
   113    36    66    1
   114    37    52    1
   115    37    67    1
   116    38    53    1
   117    38    68    1
   118    42    48    1
   119    42    72    1
   120    43    44    2
   121    60    73    1
   122    61    74    1
   123    39    69    1
   124    39    57    1
   125    40    70    1
   126    40    50    1
   127    41    71    1
   128    41    49    1
