@<TRIPOS>MOLECULE
*****
 123 128 0 0 0
SMALL
GASTEIGER

@<TRIPOS>ATOM
     1 C         4.196334   2.856521   2.056778 C.3        1 UNL1     0.0009
     2 C         5.499878   4.130795   1.719084 C.2        1 UNL1     -0.0787
     3 C         6.874189   4.47263   1.418313 C.2        1 UNL1     -0.0649
     4 C         7.513394   6.000368   1.066474 C.2        1 UNL1     -0.0542
     5 C         8.595809   6.698183   0.476127 C.2        1 UNL1     0.0115
     6 C         10.023381   6.535312   -0.114496 C.3        1 UNL1     -0.0348
     7 C         8.402278   8.242324   0.082218 C.2        1 UNL1     0.2441
     8 O         8.847737   9.161623   0.755257 O.2        1 UNL1     -0.2702
     9 N         7.915599   8.461895   -1.218199 N.am        1 UNL1     -0.2772
     10 C         6.539635   8.457181   -1.223141 C.2        1 UNL1     0.1049
     11 C         5.961852   7.270839   -1.277745 C.2        1 UNL1     0.0801
     12 C         4.548546   9.415699   -0.050904 C.ar        1 UNL1     0.0753
     13 C         4.060097   8.074102   0.049823 C.ar        1 UNL1     0.0305
     14 C         4.689584   6.97402   -0.677237 C.2        1 UNL1     0.0924
     15 N         6.490995   6.063589   -1.540579 N.pl3        1 UNL1     -0.3170
     16 C         5.407545   5.122961   -1.648322 C.3        1 UNL1     0.1275
     17 N         4.317279   5.701296   -0.77966 N.2        1 UNL1     -0.2557
     18 C         4.888951   5.192799   -3.08146 C.3        1 UNL1     0.0016
     19 C         6.04659   4.928451   -4.030977 C.3        1 UNL1     0.0026
     20 N         6.601171   3.614075   -3.737914 N.3        1 UNL1     -0.3018
     21 C         7.070965   3.429917   -2.363233 C.3        1 UNL1     0.0026
     22 C         5.89105   3.695838   -1.42676 C.3        1 UNL1     0.0016
     23 C         7.504224   3.140583   -4.767935 C.3        1 UNL1     0.0012
     24 C         6.726919   2.791651   -6.046919 C.3        1 UNL1     -0.0339
     25 C         6.734039   3.960474   -7.045848 C.3        1 UNL1     -0.0615
     26 C         7.286696   1.523117   -6.666801 C.3        1 UNL1     -0.0615
     27 C         3.872672   10.476673   0.547131 C.ar        1 UNL1     0.1347
     28 C         2.682   10.325626   1.235269 C.ar        1 UNL1     0.0342
     29 C         2.245918   8.989728   1.363225 C.ar        1 UNL1     0.1435
     30 C         2.931736   7.912685   0.80033 C.ar        1 UNL1     0.0774
     31 O         1.048007   8.688768   1.910436 O.3        1 UNL1     -0.4436
     32 C         0.760322   7.361263   1.445851 C.3        1 UNL1     0.3143
     33 C         2.108667   6.76052   1.10338 C.2        1 UNL1     0.2504
     34 C         1.775628   11.438015   1.683802 C.3        1 UNL1     -0.0327
     35 O         0.245244   6.622245   2.560212 O.2        1 UNL1     -0.4528
     36 C         -2.130495   4.050164   1.094489 C.3        1 UNL1     0.0854
     37 C         -1.848546   2.933375   0.01708 C.3        1 UNL1     0.0236
     38 C         -2.230217   1.443694   0.471968 C.3        1 UNL1     0.1131
     39 C         -1.704246   0.886279   1.855771 C.3        1 UNL1     0.0200
     40 C         -0.126721   1.151229   2.328692 C.3        1 UNL1     0.0661
     41 C         1.254574   0.86388   1.386851 C.3        1 UNL1     0.0091
     42 C         2.870325   1.731791   1.34837 C.3        1 UNL1     0.0661
     43 C         5.750376   9.652011   -0.888771 C.2        1 UNL1     0.2131
     44 O         6.032645   10.733999   -1.370814 O.2        1 UNL1     -0.2851
     45 O         4.43959   11.744984   0.44021 O.3        1 UNL1     -0.5056
     46 O         2.435968   5.594875   1.102587 O.2        1 UNL1     -0.2836
     47 C         4.35537   2.289969   3.493339 C.3        1 UNL1     -0.0566
     48 O         3.670499   0.484137   1.395245 O.3        1 UNL1     -0.3909
     49 C         0.830891   0.656298   -0.050124 C.3        1 UNL1     -0.0577
     50 O         -0.005658   2.389914   2.998562 O.3        1 UNL1     -0.3910
     51 O         -2.51316   3.591603   2.371486 O.3        1 UNL1     -0.3753
     52 C         -0.565031   3.24363   -0.820344 C.3        1 UNL1     -0.0564
     53 O         -2.287393   0.464875   -0.664241 O.3        1 UNL1     -0.4608
     54 C         -2.198293   -0.897425   -0.545375 C.2        1 UNL1     0.3042
     55 O         -1.279543   -1.621849   -0.926094 O.2        1 UNL1     -0.2512
     56 C         -3.35457   -1.513909   0.189258 C.3        1 UNL1     0.0332
     57 C         -2.856699   1.121077   2.939697 C.3        1 UNL1     -0.0567
     58 C         -0.05955   7.521375   0.144427 C.3        1 UNL1     0.0210
     59 C         -3.337158   4.492586   3.10981 C.3        1 UNL1     0.0372
     60 C         -1.019822   5.019063   1.301373 C.2        1 UNL1     -0.0208
     61 C         -0.49501   5.504979   2.427073 C.2        1 UNL1     0.0882
     62 H         3.453221   3.660724   2.118029 H        1 UNL1     0.0365
     63 H         4.927863   5.049976   1.86183 H        1 UNL1     0.0576
     64 H         7.626259   3.704176   1.226017 H        1 UNL1     0.0615
     65 H         6.719558   6.69019   1.36556 H        1 UNL1     0.0622
     66 H         -2.96423   4.632157   0.677096 H        1 UNL1     0.0645
     67 H         -2.600818   3.122553   -0.768322 H        1 UNL1     0.0362
     68 H         -3.316948   1.563075   0.599582 H        1 UNL1     0.0741
     69 H         -1.769979   -0.193508   1.843644 H        1 UNL1     0.0359
     70 H         -0.03817   0.393361   3.130474 H        1 UNL1     0.0600
     71 H         1.487261   -0.173849   1.696582 H        1 UNL1     0.0348
     72 H         2.406683   1.996575   2.309744 H        1 UNL1     0.0602
     73 H         -0.726999   5.420251   0.362996 H        1 UNL1     0.0628
     74 H         -0.698331   5.109922   3.422979 H        1 UNL1     0.1022
     75 H         10.344081   5.466351   -0.075667 H        1 UNL1     0.0279
     76 H         10.143067   6.777671   -1.168064 H        1 UNL1     0.0279
     77 H         10.796382   7.016122   0.50275 H        1 UNL1     0.0279
     78 H         8.226707   7.711164   -1.831136 H        1 UNL1     0.1553
     79 H         7.37433   5.930161   -1.99758 H        1 UNL1     0.1484
     80 H         4.089497   4.452925   -3.208837 H        1 UNL1     0.0317
     81 H         4.445541   6.172401   -3.289831 H        1 UNL1     0.0317
     82 H         6.818497   5.708769   -3.959031 H        1 UNL1     0.0428
     83 H         5.655091   4.984762   -5.04715 H        1 UNL1     0.0428
     84 H         7.408437   2.411341   -2.147767 H        1 UNL1     0.0428
     85 H         7.94858   4.053703   -2.144145 H        1 UNL1     0.0428
     86 H         6.233185   3.423783   -0.445477 H        1 UNL1     0.0317
     87 H         5.086849   2.976403   -1.62366 H        1 UNL1     0.0317
     88 H         8.212385   3.947222   -4.998448 H        1 UNL1     0.0429
     89 H         8.09494   2.284393   -4.417553 H        1 UNL1     0.0429
     90 H         5.687207   2.563117   -5.784272 H        1 UNL1     0.0308
     91 H         7.755061   4.250873   -7.310963 H        1 UNL1     0.0233
     92 H         6.189182   3.695068   -7.954858 H        1 UNL1     0.0233
     93 H         6.242683   4.855345   -6.645088 H        1 UNL1     0.0233
     94 H         6.868647   1.375914   -7.6685 H        1 UNL1     0.0233
     95 H         8.373155   1.602314   -6.763223 H        1 UNL1     0.0233
     96 H         7.049235   0.644369   -6.06068 H        1 UNL1     0.0233
     97 H         0.880875   11.062939   2.171618 H        1 UNL1     0.0280
     98 H         2.261342   12.098741   2.413719 H        1 UNL1     0.0280
     99 H         1.468062   12.037843   0.811618 H        1 UNL1     0.0280
     100 H         3.865859   12.401736   0.086471 H        1 UNL1     0.2922
     101 H         3.559429   1.573775   3.696315 H        1 UNL1     0.0236
     102 H         4.411879   3.065713   4.256236 H        1 UNL1     0.0236
     103 H         5.287745   1.712678   3.609977 H        1 UNL1     0.0236
     104 H         3.895052   0.312723   2.330746 H        1 UNL1     0.2098
     105 H         0.509519   1.561685   -0.558854 H        1 UNL1     0.0234
     106 H         1.550363   0.11363   -0.663149 H        1 UNL1     0.0234
     107 H         0.0   0.0   0.0 H        1 UNL1     0.0234
     108 H         -0.217667   3.090999   2.352574 H        1 UNL1     0.2098
     109 H         0.333031   3.3215   -0.191748 H        1 UNL1     0.0234
     110 H         -0.389009   2.519016   -1.622649 H        1 UNL1     0.0234
     111 H         -0.64593   4.205718   -1.343593 H        1 UNL1     0.0234
     112 H         -3.217865   -2.597509   0.256113 H        1 UNL1     0.0342
     113 H         -3.492868   -1.075899   1.17661 H        1 UNL1     0.0342
     114 H         -4.268981   -1.324914   -0.38979 H        1 UNL1     0.0342
     115 H         -3.782385   0.592955   2.672523 H        1 UNL1     0.0234
     116 H         -2.583858   0.814185   3.951342 H        1 UNL1     0.0234
     117 H         -3.212259   2.164866   2.984687 H        1 UNL1     0.0234
     118 H         -1.131708   7.689029   0.347835 H        1 UNL1     0.0309
     119 H         0.312074   8.323113   -0.50157 H        1 UNL1     0.0309
     120 H         -0.05769   6.613054   -0.467991 H        1 UNL1     0.0309
     121 H         -2.763196   5.4039   3.275431 H        1 UNL1     0.0524
     122 H         -4.250761   4.771216   2.558691 H        1 UNL1     0.0524
     123 H         -3.620158   4.049845   4.060592 H        1 UNL1     0.0524
@<TRIPOS>BOND
     1     1     2    1
     2     1    42    1
     3     2     3    2
     4     3     4    1
     5     4     5    2
     6     5     7    1
     7     6    75    1
     8     6    76    1
     9     6    77    1
    10     7     9   am
    11     9    10    1
    12    10    11    2
    13    10    43    1
    14    11    14    1
    15    11    15    1
    16    12    13   ar
    17    12    27   ar
    18    12    43    1
    19    13    14    1
    20    13    30   ar
    21    14    17    2
    22    15    16    1
    23    16    17    1
    24    16    18    1
    25    16    22    1
    26    18    19    1
    27    19    20    1
    28    20    21    1
    29    21    22    1
    30    23    24    1
    31    23    88    1
    32    23    89    1
    33    24    25    1
    34    24    26    1
    35    24    90    1
    36    25    91    1
    37    25    92    1
    38    25    93    1
    39    26    94    1
    40    26    95    1
    41    26    96    1
    42    27    28   ar
    43    28    29   ar
    44    29    30   ar
    45    29    31    1
    46    30    33    1
    47    31    32    1
    48    32    33    1
    49    32    35    1
    50    34    97    1
    51    34    98    1
    52    34    99    1
    53    35    61    1
    54    36    37    1
    55    36    60    1
    56    37    38    1
    57    38    39    1
    58    39    40    1
    59    40    41    1
    60    41    42    1
    61    45   100    1
    62    47   101    1
    63    47   102    1
    64    47   103    1
    65    48   104    1
    66    49   105    1
    67    49   106    1
    68    49   107    1
    69    50   108    1
    70    51    59    1
    71    52   109    1
    72    52   110    1
    73    52   111    1
    74    53    54    1
    75    54    55    2
    76    54    56    1
    77    56   112    1
    78    56   113    1
    79    56   114    1
    80    57   115    1
    81    57   116    1
    82    57   117    1
    83    58   118    1
    84    58   119    1
    85    58   120    1
    86    59   121    1
    87    59   122    1
    88    59   123    1
    89    60    61    2
    90     1    47    1
    91     1    62    1
    92     2    63    1
    93     3    64    1
    94     4    65    1
    95     5     6    1
    96     7     8    2
    97     9    78    1
    98    15    79    1
    99    18    80    1
   100    18    81    1
   101    19    82    1
   102    19    83    1
   103    20    23    1
   104    21    84    1
   105    21    85    1
   106    22    86    1
   107    22    87    1
   108    27    45    1
   109    28    34    1
   110    32    58    1
   111    33    46    2
   112    36    51    1
   113    36    66    1
   114    37    52    1
   115    37    67    1
   116    38    53    1
   117    38    68    1
   118    42    48    1
   119    42    72    1
   120    43    44    2
   121    60    73    1
   122    61    74    1
   123    39    69    1
   124    39    57    1
   125    40    70    1
   126    40    50    1
   127    41    71    1
   128    41    49    1
