@<TRIPOS>MOLECULE
*****
 123 128 0 0 0
SMALL
GASTEIGER

@<TRIPOS>ATOM
     1 C         5.166911   1.749697   0.490775 C.3        1 UNL1     0.0009
     2 C         6.603178   2.556583   -0.359583 C.2        1 UNL1     -0.0787
     3 C         7.884892   2.459041   -1.025722 C.2        1 UNL1     -0.0649
     4 C         8.761849   3.694765   -1.780897 C.2        1 UNL1     -0.0542
     5 C         9.781545   3.98814   -2.719635 C.2        1 UNL1     0.0115
     6 C         10.909641   3.363412   -3.585912 C.3        1 UNL1     -0.0348
     7 C         9.876379   5.471741   -3.325378 C.2        1 UNL1     0.2441
     8 O         10.700183   6.293374   -2.947498 O.2        1 UNL1     -0.2702
     9 N         9.125781   5.679162   -4.495733 N.am        1 UNL1     -0.2772
     10 C         7.843067   6.065386   -4.181413 C.2        1 UNL1     0.1049
     11 C         6.997583   5.093627   -3.889758 C.2        1 UNL1     0.0801
     12 C         6.544709   7.670993   -2.769455 C.ar        1 UNL1     0.0753
     13 C         5.786031   6.542669   -2.322353 C.ar        1 UNL1     0.0305
     14 C         5.903076   5.237338   -2.968466 C.2        1 UNL1     0.0924
     15 N         7.120458   3.764761   -4.049588 N.pl3        1 UNL1     -0.3170
     16 C         5.850822   3.165138   -3.735374 C.3        1 UNL1     0.1275
     17 N         5.214482   4.119707   -2.754767 N.2        1 UNL1     -0.2557
     18 C         4.997606   3.224687   -4.998773 C.3        1 UNL1     0.0016
     19 C         5.752324   2.541366   -6.12796 C.3        1 UNL1     0.0026
     20 N         6.022885   1.16312   -5.742909 N.3        1 UNL1     -0.3018
     21 C         6.786626   1.00224   -4.503883 C.3        1 UNL1     0.0026
     22 C         6.00804   1.691988   -3.382302 C.3        1 UNL1     0.0016
     23 C         6.467264   0.344272   -6.853161 C.3        1 UNL1     0.0012
     24 C         5.311599   0.095058   -7.83504 C.3        1 UNL1     -0.0339
     25 C         5.346754   1.087837   -9.008586 C.3        1 UNL1     -0.0615
     26 C         5.340889   -1.344176   -8.319321 C.3        1 UNL1     -0.0615
     27 C         6.339915   8.938354   -2.22911 C.ar        1 UNL1     0.1347
     28 C         5.381066   9.207177   -1.268696 C.ar        1 UNL1     0.0342
     29 C         4.67989   8.072325   -0.808667 C.ar        1 UNL1     0.1435
     30 C         4.89948   6.790615   -1.31485 C.ar        1 UNL1     0.0774
     31 O         3.639115   8.185205   0.045178 O.3        1 UNL1     -0.4436
     32 C         2.917675   6.952298   -0.097429 C.3        1 UNL1     0.3143
     33 C         3.931044   5.959702   -0.630391 C.2        1 UNL1     0.2504
     34 C         4.934045   10.572947   -0.827172 C.3        1 UNL1     -0.0327
     35 O         2.557512   6.514822   1.218683 O.2        1 UNL1     -0.4528
     36 C         -0.685212   4.582114   0.82186 C.3        1 UNL1     0.0854
     37 C         -0.990491   3.321933   -0.076065 C.3        1 UNL1     0.0236
     38 C         -1.590536   2.06034   0.711382 C.3        1 UNL1     0.1131
     39 C         -0.864284   1.528887   2.012299 C.3        1 UNL1     0.0200
     40 C         0.796953   1.383695   2.052912 C.3        1 UNL1     0.0661
     41 C         1.756158   0.615693   0.883421 C.3        1 UNL1     0.0091
     42 C         3.4635   0.978929   0.319113 C.3        1 UNL1     0.0661
     43 C         7.494474   7.464091   -3.890793 C.2        1 UNL1     0.2131
     44 O         7.893947   8.362634   -4.60897 O.2        1 UNL1     -0.2851
     45 O         7.151816   9.973884   -2.687294 O.3        1 UNL1     -0.5056
     46 O         3.947342   4.756103   -0.500246 O.2        1 UNL1     -0.2836
     47 C         5.563788   1.319561   1.928639 C.3        1 UNL1     -0.0566
     48 O         3.912404   -0.432118   0.400035 O.3        1 UNL1     -0.3909
     49 C         0.921662   0.38356   -0.356428 C.3        1 UNL1     -0.0577
     50 O         1.396993   2.601488   2.446175 O.3        1 UNL1     -0.3910
     51 O         -0.808853   4.391691   2.21322 O.3        1 UNL1     -0.3753
     52 C         0.053663   3.162293   -1.228977 C.3        1 UNL1     -0.0564
     53 O         -2.193169   1.021688   -0.188818 O.3        1 UNL1     -0.4608
     54 C         -2.427188   -0.285292   0.150253 C.2        1 UNL1     0.3042
     55 O         -1.857995   -1.284068   -0.288271 O.2        1 UNL1     -0.2512
     56 C         -3.466856   -0.451722   1.221749 C.3        1 UNL1     0.0332
     57 C         -1.585092   2.197068   3.274101 C.3        1 UNL1     -0.0567
     58 C         1.842107   7.197708   -1.181154 C.3        1 UNL1     0.0210
     59 C         -1.122096   5.570244   2.954001 C.3        1 UNL1     0.0372
     60 C         0.643576   5.211613   0.591179 C.2        1 UNL1     -0.0208
     61 C         1.55667   5.646602   1.46054 C.2        1 UNL1     0.0882
     62 H         4.690798   2.733719   0.578689 H        1 UNL1     0.0365
     63 H         6.336728   3.610269   -0.253658 H        1 UNL1     0.0576
     64 H         8.342696   1.492406   -1.247402 H        1 UNL1     0.0615
     65 H         8.274665   4.609875   -1.433465 H        1 UNL1     0.0622
     66 H         -1.43012   5.328636   0.512241 H        1 UNL1     0.0645
     67 H         -1.856289   3.63142   -0.686944 H        1 UNL1     0.0362
     68 H         -2.537599   2.496826   1.063624 H        1 UNL1     0.0741
     69 H         -1.195525   0.517616   2.207281 H        1 UNL1     0.0359
     70 H         0.909136   0.722938   2.93375 H        1 UNL1     0.0600
     71 H         1.800093   -0.405681   1.309827 H        1 UNL1     0.0348
     72 H         3.357802   1.46661   1.299067 H        1 UNL1     0.0602
     73 H         0.761119   5.409418   -0.445308 H        1 UNL1     0.0628
     74 H         1.539489   5.435388   2.530274 H        1 UNL1     0.1022
     75 H         10.952334   2.257653   -3.435881 H        1 UNL1     0.0279
     76 H         10.797144   3.449323   -4.664352 H        1 UNL1     0.0279
     77 H         11.914861   3.665723   -3.25752 H        1 UNL1     0.0279
     78 H         9.063816   4.809467   -5.020965 H        1 UNL1     0.1553
     79 H         7.785638   3.337232   -4.667397 H        1 UNL1     0.1484
     80 H         4.036491   2.733442   -4.804601 H        1 UNL1     0.0317
     81 H         4.770687   4.261528   -5.269181 H        1 UNL1     0.0317
     82 H         6.682795   3.072999   -6.375954 H        1 UNL1     0.0428
     83 H         5.126892   2.596824   -7.019481 H        1 UNL1     0.0428
     84 H         6.907269   -0.040843   -4.19528 H        1 UNL1     0.0428
     85 H         7.816607   1.370552   -4.607823 H        1 UNL1     0.0428
     86 H         6.524791   1.441278   -2.474501 H        1 UNL1     0.0317
     87 H         5.028738   1.214072   -3.257161 H        1 UNL1     0.0317
     88 H         7.26305   0.886512   -7.380414 H        1 UNL1     0.0429
     89 H         6.900174   -0.601583   -6.502844 H        1 UNL1     0.0429
     90 H         4.358699   0.213654   -7.305768 H        1 UNL1     0.0308
     91 H         6.299774   1.037541   -9.543679 H        1 UNL1     0.0233
     92 H         4.531697   0.888037   -9.708137 H        1 UNL1     0.0233
     93 H         5.220492   2.126753   -8.680642 H        1 UNL1     0.0233
     94 H         4.646179   -1.475374   -9.155981 H        1 UNL1     0.0233
     95 H         6.344347   -1.599678   -8.671107 H        1 UNL1     0.0233
     96 H         5.058351   -2.038863   -7.523361 H        1 UNL1     0.0233
     97 H         4.134644   10.522755   -0.093912 H        1 UNL1     0.0280
     98 H         5.744392   11.139446   -0.350021 H        1 UNL1     0.0280
     99 H         4.568788   11.141217   -1.698236 H        1 UNL1     0.0280
     100 H         6.684535   10.725077   -3.008199 H        1 UNL1     0.2922
     101 H         4.701223   0.885475   2.43382 H        1 UNL1     0.0236
     102 H         6.014563   2.124715   2.507873 H        1 UNL1     0.0236
     103 H         6.320215   0.51706   1.926908 H        1 UNL1     0.0236
     104 H         4.331913   -0.558545   1.273533 H        1 UNL1     0.2098
     105 H         0.708642   1.282631   -0.929232 H        1 UNL1     0.0234
     106 H         1.291028   -0.404051   -1.013061 H        1 UNL1     0.0234
     107 H         0.0   -0.0   0.0 H        1 UNL1     0.0234
     108 H         1.203482   3.258384   1.749892 H        1 UNL1     0.2098
     109 H         1.080063   3.061054   -0.849547 H        1 UNL1     0.0234
     110 H         -0.172236   2.327985   -1.901765 H        1 UNL1     0.0234
     111 H         0.065809   4.040294   -1.888457 H        1 UNL1     0.0234
     112 H         -3.58994   -1.512748   1.459281 H        1 UNL1     0.0342
     113 H         -3.229803   0.123758   2.115322 H        1 UNL1     0.0342
     114 H         -4.424472   -0.080745   0.831221 H        1 UNL1     0.0342
     115 H         -2.654649   1.948533   3.312404 H        1 UNL1     0.0234
     116 H         -1.148282   1.916925   4.234708 H        1 UNL1     0.0234
     117 H         -1.623952   3.29894   3.226035 H        1 UNL1     0.0234
     118 H         0.940426   7.682796   -0.768035 H        1 UNL1     0.0309
     119 H         2.210661   7.787496   -2.026447 H        1 UNL1     0.0309
     120 H         1.454723   6.265911   -1.607527 H        1 UNL1     0.0309
     121 H         -0.301246   6.273663   2.817018 H        1 UNL1     0.0524
     122 H         -2.042111   6.05926   2.592791 H        1 UNL1     0.0524
     123 H         -1.239695   5.331951   4.00732 H        1 UNL1     0.0524
@<TRIPOS>BOND
     1     1     2    1
     2     1    42    1
     3     2     3    2
     4     3     4    1
     5     4     5    2
     6     5     7    1
     7     6    75    1
     8     6    76    1
     9     6    77    1
    10     7     9   am
    11     9    10    1
    12    10    11    2
    13    10    43    1
    14    11    14    1
    15    11    15    1
    16    12    13   ar
    17    12    27   ar
    18    12    43    1
    19    13    14    1
    20    13    30   ar
    21    14    17    2
    22    15    16    1
    23    16    17    1
    24    16    18    1
    25    16    22    1
    26    18    19    1
    27    19    20    1
    28    20    21    1
    29    21    22    1
    30    23    24    1
    31    23    88    1
    32    23    89    1
    33    24    25    1
    34    24    26    1
    35    24    90    1
    36    25    91    1
    37    25    92    1
    38    25    93    1
    39    26    94    1
    40    26    95    1
    41    26    96    1
    42    27    28   ar
    43    28    29   ar
    44    29    30   ar
    45    29    31    1
    46    30    33    1
    47    31    32    1
    48    32    33    1
    49    32    35    1
    50    34    97    1
    51    34    98    1
    52    34    99    1
    53    35    61    1
    54    36    37    1
    55    36    60    1
    56    37    38    1
    57    38    39    1
    58    39    40    1
    59    40    41    1
    60    41    42    1
    61    45   100    1
    62    47   101    1
    63    47   102    1
    64    47   103    1
    65    48   104    1
    66    49   105    1
    67    49   106    1
    68    49   107    1
    69    50   108    1
    70    51    59    1
    71    52   109    1
    72    52   110    1
    73    52   111    1
    74    53    54    1
    75    54    55    2
    76    54    56    1
    77    56   112    1
    78    56   113    1
    79    56   114    1
    80    57   115    1
    81    57   116    1
    82    57   117    1
    83    58   118    1
    84    58   119    1
    85    58   120    1
    86    59   121    1
    87    59   122    1
    88    59   123    1
    89    60    61    2
    90     1    47    1
    91     1    62    1
    92     2    63    1
    93     3    64    1
    94     4    65    1
    95     5     6    1
    96     7     8    2
    97     9    78    1
    98    15    79    1
    99    18    80    1
   100    18    81    1
   101    19    82    1
   102    19    83    1
   103    20    23    1
   104    21    84    1
   105    21    85    1
   106    22    86    1
   107    22    87    1
   108    27    45    1
   109    28    34    1
   110    32    58    1
   111    33    46    2
   112    36    51    1
   113    36    66    1
   114    37    52    1
   115    37    67    1
   116    38    53    1
   117    38    68    1
   118    42    48    1
   119    42    72    1
   120    43    44    2
   121    60    73    1
   122    61    74    1
   123    39    69    1
   124    39    57    1
   125    40    70    1
   126    40    50    1
   127    41    71    1
   128    41    49    1
