@<TRIPOS>MOLECULE
*****
 123 128 0 0 0
SMALL
GASTEIGER

@<TRIPOS>ATOM
     1 C         5.16884   1.741495   0.49956 C.3        1 UNL1     0.0009
     2 C         6.608043   2.545518   -0.348542 C.2        1 UNL1     -0.0787
     3 C         7.890857   2.445477   -1.012188 C.2        1 UNL1     -0.0649
     4 C         8.771276   3.679313   -1.766421 C.2        1 UNL1     -0.0542
     5 C         9.793234   3.970459   -2.703393 C.2        1 UNL1     0.0115
     6 C         10.921944   3.343367   -3.567159 C.3        1 UNL1     -0.0348
     7 C         9.891656   5.453544   -3.309825 C.2        1 UNL1     0.2441
     8 O         10.716091   6.274045   -2.930864 O.2        1 UNL1     -0.2702
     9 N         9.143624   5.661507   -4.481726 N.am        1 UNL1     -0.2772
     10 C         7.860952   6.050023   -4.170068 C.2        1 UNL1     0.1049
     11 C         7.013319   5.079827   -3.87945 C.2        1 UNL1     0.0801
     12 C         6.562557   7.658595   -2.761522 C.ar        1 UNL1     0.0753
     13 C         5.801178   6.531782   -2.315199 C.ar        1 UNL1     0.0305
     14 C         5.917303   5.22588   -2.960323 C.2        1 UNL1     0.0924
     15 N         7.134312   3.750667   -4.038266 N.pl3        1 UNL1     -0.3170
     16 C         5.863098   3.153316   -3.726113 C.3        1 UNL1     0.1275
     17 N         5.226468   4.109508   -2.747276 N.2        1 UNL1     -0.2557
     18 C         5.012381   3.213522   -4.991165 C.3        1 UNL1     0.0016
     19 C         5.768116   2.528295   -6.118514 C.3        1 UNL1     0.0026
     20 N         6.03568   1.149834   -5.732142 N.3        1 UNL1     -0.3018
     21 C         6.796802   0.98843   -4.491573 C.3        1 UNL1     0.0026
     22 C         6.017224   1.680119   -3.371877 C.3        1 UNL1     0.0016
     23 C         6.480819   0.329603   -6.841067 C.3        1 UNL1     0.0012
     24 C         5.325492   0.078071   -7.822752 C.3        1 UNL1     -0.0339
     25 C         5.349977   1.080109   -8.988676 C.3        1 UNL1     -0.0615
     26 C         5.366163   -1.357094   -8.318159 C.3        1 UNL1     -0.0615
     27 C         6.358822   8.926609   -2.22231 C.ar        1 UNL1     0.1347
     28 C         5.398595   9.197574   -1.263877 C.ar        1 UNL1     0.0342
     29 C         4.694682   8.064147   -0.804515 C.ar        1 UNL1     0.1435
     30 C         4.913124   6.781779   -1.309527 C.ar        1 UNL1     0.0774
     31 O         3.652475   8.17924   0.047285 O.3        1 UNL1     -0.4436
     32 C         2.92928   6.947436   -0.095968 C.3        1 UNL1     0.3143
     33 C         3.942027   5.952862   -0.626422 C.2        1 UNL1     0.2504
     34 C         4.952982   10.564337   -0.824005 C.3        1 UNL1     -0.0327
     35 O         2.565902   6.51133   1.219714 O.2        1 UNL1     -0.4528
     36 C         -0.679237   4.583718   0.817868 C.3        1 UNL1     0.0854
     37 C         -0.984882   3.323511   -0.079896 C.3        1 UNL1     0.0236
     38 C         -1.588494   2.06337   0.707151 C.3        1 UNL1     0.1131
     39 C         -0.865587   1.531492   2.009756 C.3        1 UNL1     0.0200
     40 C         0.795328   1.383595   2.053609 C.3        1 UNL1     0.0661
     41 C         1.755487   0.613328   0.886393 C.3        1 UNL1     0.0091
     42 C         3.464493   0.973426   0.325115 C.3        1 UNL1     0.0661
     43 C         7.514107   7.449471   -3.880932 C.2        1 UNL1     0.2131
     44 O         7.91642   8.346932   -4.598877 O.2        1 UNL1     -0.2851
     45 O         7.173293   9.960533   -2.67956 O.3        1 UNL1     -0.5056
     46 O         3.956098   4.749315   -0.495539 O.2        1 UNL1     -0.2836
     47 C         5.562278   1.311556   1.938428 C.3        1 UNL1     -0.0566
     48 O         3.910922   -0.438309   0.407718 O.3        1 UNL1     -0.3909
     49 C         0.922966   0.381834   -0.354902 C.3        1 UNL1     -0.0577
     50 O         1.396622   2.600632   2.447296 O.3        1 UNL1     -0.3910
     51 O         -0.805831   4.394319   2.209102 O.3        1 UNL1     -0.3753
     52 C         0.061195   3.161475   -1.230729 C.3        1 UNL1     -0.0564
     53 O         -2.191124   1.025178   -0.193583 O.3        1 UNL1     -0.4608
     54 C         -2.415829   -0.284471   0.141464 C.2        1 UNL1     0.3042
     55 O         -1.844351   -1.278302   -0.305247 O.2        1 UNL1     -0.2512
     56 C         -3.44719   -0.46104   1.219346 C.3        1 UNL1     0.0332
     57 C         -1.58769   2.201601   3.269795 C.3        1 UNL1     -0.0567
     58 C         1.856177   7.193973   -1.181877 C.3        1 UNL1     0.0210
     59 C         -1.157171   5.5658   2.943988 C.3        1 UNL1     0.0372
     60 C         0.65102   5.210897   0.589341 C.2        1 UNL1     -0.0208
     61 C         1.563176   5.644898   1.460179 C.2        1 UNL1     0.0882
     62 H         4.694179   2.726349   0.585993 H        1 UNL1     0.0365
     63 H         6.343125   3.599703   -0.243742 H        1 UNL1     0.0576
     64 H         8.347491   1.477961   -1.23243 H        1 UNL1     0.0615
     65 H         8.284939   4.595427   -1.420452 H        1 UNL1     0.0622
     66 H         -1.422327   5.33128   0.506396 H        1 UNL1     0.0645
     67 H         -1.849009   3.634059   -0.692599 H        1 UNL1     0.0362
     68 H         -2.535505   2.501619   1.057337 H        1 UNL1     0.0741
     69 H         -1.19886   0.520882   2.204702 H        1 UNL1     0.0359
     70 H         0.904753   0.723174   2.935046 H        1 UNL1     0.0600
     71 H         1.796934   -0.407865   1.313481 H        1 UNL1     0.0348
     72 H         3.357736   1.461858   1.304581 H        1 UNL1     0.0602
     73 H         0.770856   5.407897   -0.447037 H        1 UNL1     0.0628
     74 H         1.543618   5.434343   2.530003 H        1 UNL1     0.1022
     75 H         10.964608   2.238038   -3.413986 H        1 UNL1     0.0279
     76 H         10.810155   3.426232   -4.645911 H        1 UNL1     0.0279
     77 H         11.926927   3.646668   -3.238954 H        1 UNL1     0.0279
     78 H         9.081226   4.791605   -5.006564 H        1 UNL1     0.1553
     79 H         7.799961   3.321681   -4.654559 H        1 UNL1     0.1484
     80 H         4.050093   2.723972   -4.798529 H        1 UNL1     0.0317
     81 H         4.787681   4.250575   -5.262611 H        1 UNL1     0.0317
     82 H         6.69993   3.058253   -6.365053 H        1 UNL1     0.0428
     83 H         5.14447   2.584255   -7.011254 H        1 UNL1     0.0428
     84 H         6.915144   -0.054667   -4.182129 H        1 UNL1     0.0428
     85 H         7.827582   1.354989   -4.593773 H        1 UNL1     0.0428
     86 H         6.531837   1.429096   -2.46295 H        1 UNL1     0.0317
     87 H         5.036902   1.203886   -3.248316 H        1 UNL1     0.0317
     88 H         7.276309   0.871596   -7.369019 H        1 UNL1     0.0429
     89 H         6.914337   -0.61541   -6.489232 H        1 UNL1     0.0429
     90 H         4.372604   0.184442   -7.290866 H        1 UNL1     0.0308
     91 H         6.298863   1.035525   -9.531566 H        1 UNL1     0.0233
     92 H         4.529784   0.884537   -9.683402 H        1 UNL1     0.0233
     93 H         5.224711   2.116212   -8.65158 H        1 UNL1     0.0233
     94 H         4.669891   -1.488173   -9.153538 H        1 UNL1     0.0233
     95 H         6.370712   -1.600805   -8.675158 H        1 UNL1     0.0233
     96 H         5.092552   -2.060375   -7.526641 H        1 UNL1     0.0233
     97 H         4.158392   10.515748   -0.085428 H        1 UNL1     0.0280
     98 H         5.765793   11.133264   -0.353986 H        1 UNL1     0.0280
     99 H         4.581498   11.129326   -1.694568 H        1 UNL1     0.0280
     100 H         6.707842   10.711517   -3.003598 H        1 UNL1     0.2922
     101 H         4.698044   0.879186   2.442225 H        1 UNL1     0.0236
     102 H         6.013277   2.11631   2.518044 H        1 UNL1     0.0236
     103 H         6.317387   0.507812   1.938605 H        1 UNL1     0.0236
     104 H         4.32888   -0.564817   1.281947 H        1 UNL1     0.2098
     105 H         0.712512   1.280917   -0.928637 H        1 UNL1     0.0234
     106 H         1.292283   -0.406769   -1.010369 H        1 UNL1     0.0234
     107 H         0.0   -0.0   0.0 H        1 UNL1     0.0234
     108 H         1.197721   3.25984   1.754727 H        1 UNL1     0.2098
     109 H         1.085164   3.045805   -0.848865 H        1 UNL1     0.0234
     110 H         -0.171748   2.335126   -1.910896 H        1 UNL1     0.0234
     111 H         0.085233   4.044521   -1.883107 H        1 UNL1     0.0234
     112 H         -3.574407   -1.524793   1.442038 H        1 UNL1     0.0342
     113 H         -3.199107   0.099601   2.119335 H        1 UNL1     0.0342
     114 H         -4.405953   -0.078792   0.84275 H        1 UNL1     0.0342
     115 H         -2.652313   1.934689   3.320034 H        1 UNL1     0.0234
     116 H         -1.138051   1.940502   4.229847 H        1 UNL1     0.0234
     117 H         -1.646501   3.301975   3.209299 H        1 UNL1     0.0234
     118 H         0.955138   7.682194   -0.771055 H        1 UNL1     0.0309
     119 H         2.227731   7.781356   -2.027532 H        1 UNL1     0.0309
     120 H         1.466964   6.262528   -1.607352 H        1 UNL1     0.0309
     121 H         -0.357462   6.293156   2.806964 H        1 UNL1     0.0524
     122 H         -2.090245   6.02535   2.577621 H        1 UNL1     0.0524
     123 H         -1.271273   5.328248   3.997858 H        1 UNL1     0.0524
@<TRIPOS>BOND
     1     1     2    1
     2     1    42    1
     3     2     3    2
     4     3     4    1
     5     4     5    2
     6     5     7    1
     7     6    75    1
     8     6    76    1
     9     6    77    1
    10     7     9   am
    11     9    10    1
    12    10    11    2
    13    10    43    1
    14    11    14    1
    15    11    15    1
    16    12    13   ar
    17    12    27   ar
    18    12    43    1
    19    13    14    1
    20    13    30   ar
    21    14    17    2
    22    15    16    1
    23    16    17    1
    24    16    18    1
    25    16    22    1
    26    18    19    1
    27    19    20    1
    28    20    21    1
    29    21    22    1
    30    23    24    1
    31    23    88    1
    32    23    89    1
    33    24    25    1
    34    24    26    1
    35    24    90    1
    36    25    91    1
    37    25    92    1
    38    25    93    1
    39    26    94    1
    40    26    95    1
    41    26    96    1
    42    27    28   ar
    43    28    29   ar
    44    29    30   ar
    45    29    31    1
    46    30    33    1
    47    31    32    1
    48    32    33    1
    49    32    35    1
    50    34    97    1
    51    34    98    1
    52    34    99    1
    53    35    61    1
    54    36    37    1
    55    36    60    1
    56    37    38    1
    57    38    39    1
    58    39    40    1
    59    40    41    1
    60    41    42    1
    61    45   100    1
    62    47   101    1
    63    47   102    1
    64    47   103    1
    65    48   104    1
    66    49   105    1
    67    49   106    1
    68    49   107    1
    69    50   108    1
    70    51    59    1
    71    52   109    1
    72    52   110    1
    73    52   111    1
    74    53    54    1
    75    54    55    2
    76    54    56    1
    77    56   112    1
    78    56   113    1
    79    56   114    1
    80    57   115    1
    81    57   116    1
    82    57   117    1
    83    58   118    1
    84    58   119    1
    85    58   120    1
    86    59   121    1
    87    59   122    1
    88    59   123    1
    89    60    61    2
    90     1    47    1
    91     1    62    1
    92     2    63    1
    93     3    64    1
    94     4    65    1
    95     5     6    1
    96     7     8    2
    97     9    78    1
    98    15    79    1
    99    18    80    1
   100    18    81    1
   101    19    82    1
   102    19    83    1
   103    20    23    1
   104    21    84    1
   105    21    85    1
   106    22    86    1
   107    22    87    1
   108    27    45    1
   109    28    34    1
   110    32    58    1
   111    33    46    2
   112    36    51    1
   113    36    66    1
   114    37    52    1
   115    37    67    1
   116    38    53    1
   117    38    68    1
   118    42    48    1
   119    42    72    1
   120    43    44    2
   121    60    73    1
   122    61    74    1
   123    39    69    1
   124    39    57    1
   125    40    70    1
   126    40    50    1
   127    41    71    1
   128    41    49    1
