@<TRIPOS>MOLECULE
*****
 123 128 0 0 0
SMALL
GASTEIGER

@<TRIPOS>ATOM
     1 C         5.172515   1.735315   0.48274 C.3        1 UNL1     0.0009
     2 C         6.610375   2.536354   -0.370451 C.2        1 UNL1     -0.0787
     3 C         7.891177   2.433771   -1.037585 C.2        1 UNL1     -0.0649
     4 C         8.771086   3.665479   -1.795882 C.2        1 UNL1     -0.0542
     5 C         9.790776   3.954077   -2.736106 C.2        1 UNL1     0.0115
     6 C         10.916218   3.324391   -3.602247 C.3        1 UNL1     -0.0348
     7 C         9.889437   5.436253   -3.344718 C.2        1 UNL1     0.2441
     8 O         10.716016   6.25615   -2.969138 O.2        1 UNL1     -0.2702
     9 N         9.138374   5.643701   -4.514769 N.am        1 UNL1     -0.2772
     10 C         7.857099   6.034307   -4.199994 C.2        1 UNL1     0.1049
     11 C         7.009014   5.065603   -3.90574 C.2        1 UNL1     0.0801
     12 C         6.564802   7.646392   -2.789857 C.ar        1 UNL1     0.0753
     13 C         5.803205   6.521157   -2.339942 C.ar        1 UNL1     0.0305
     14 C         5.91579   5.214277   -2.983713 C.2        1 UNL1     0.0924
     15 N         7.127811   3.736082   -4.06319 N.pl3        1 UNL1     -0.3170
     16 C         5.856699   3.140808   -3.746684 C.3        1 UNL1     0.1275
     17 N         5.224092   4.099092   -2.767284 N.2        1 UNL1     -0.2557
     18 C         5.002493   3.200516   -5.009408 C.3        1 UNL1     0.0016
     19 C         5.754142   2.51285   -6.138004 C.3        1 UNL1     0.0026
     20 N         6.020982   1.134533   -5.750618 N.3        1 UNL1     -0.3018
     21 C         6.785391   0.973715   -4.511995 C.3        1 UNL1     0.0026
     22 C         6.009886   1.667863   -3.390994 C.3        1 UNL1     0.0016
     23 C         6.461911   0.312296   -6.85974 C.3        1 UNL1     0.0012
     24 C         5.304606   0.064664   -7.840087 C.3        1 UNL1     -0.0339
     25 C         5.38135   1.009243   -9.050845 C.3        1 UNL1     -0.0615
     26 C         5.287418   -1.392486   -8.268104 C.3        1 UNL1     -0.0615
     27 C         6.364257   8.915363   -2.251702 C.ar        1 UNL1     0.1347
     28 C         5.407097   9.188821   -1.290913 C.ar        1 UNL1     0.0342
     29 C         4.702993   8.056912   -0.828111 C.ar        1 UNL1     0.1435
     30 C         4.918323   6.773612   -1.33209 C.ar        1 UNL1     0.0774
     31 O         3.663347   8.17447   0.026478 O.3        1 UNL1     -0.4436
     32 C         2.938132   6.943439   -0.113153 C.3        1 UNL1     0.3143
     33 C         3.948068   5.946852   -0.645184 C.2        1 UNL1     0.2504
     34 C         4.964525   10.556732   -0.85154 C.3        1 UNL1     -0.0327
     35 O         2.577895   6.509497   1.204108 O.2        1 UNL1     -0.4528
     36 C         -0.670897   4.585653   0.813894 C.3        1 UNL1     0.0854
     37 C         -0.980733   3.324701   -0.081385 C.3        1 UNL1     0.0236
     38 C         -1.583777   2.066367   0.708979 C.3        1 UNL1     0.1131
     39 C         -0.857896   1.535205   2.010222 C.3        1 UNL1     0.0200
     40 C         0.802941   1.385173   2.049579 C.3        1 UNL1     0.0661
     41 C         1.758787   0.612147   0.880649 C.3        1 UNL1     0.0091
     42 C         3.466674   0.969272   0.31409 C.3        1 UNL1     0.0661
     43 C         7.512913   7.43458   -3.911678 C.2        1 UNL1     0.2131
     44 O         7.914377   8.33059   -4.631907 O.2        1 UNL1     -0.2851
     45 O         7.178793   9.947626   -2.712574 O.3        1 UNL1     -0.5056
     46 O         3.960926   4.743456   -0.512796 O.2        1 UNL1     -0.2836
     47 C         5.569448   1.306701   1.921043 C.3        1 UNL1     -0.0566
     48 O         3.911477   -0.442943   0.397246 O.3        1 UNL1     -0.3909
     49 C         0.922462   0.380162   -0.357995 C.3        1 UNL1     -0.0577
     50 O         1.406943   2.60192   2.440005 O.3        1 UNL1     -0.3910
     51 O         -0.793813   4.398203   2.205722 O.3        1 UNL1     -0.3753
     52 C         0.061878   3.159813   -1.234955 C.3        1 UNL1     -0.0564
     53 O         -2.190312   1.027818   -0.188717 O.3        1 UNL1     -0.4608
     54 C         -2.427881   -0.277826   0.15302 C.2        1 UNL1     0.3042
     55 O         -1.861029   -1.279002   -0.283059 O.2        1 UNL1     -0.2512
     56 C         -3.46855   -0.439285   1.224306 C.3        1 UNL1     0.0332
     57 C         -1.575557   2.207878   3.271431 C.3        1 UNL1     -0.0567
     58 C         1.862293   7.19   -1.196346 C.3        1 UNL1     0.0210
     59 C         -1.102883   5.579063   2.944578 C.3        1 UNL1     0.0372
     60 C         0.659533   5.210784   0.58081 C.2        1 UNL1     -0.0208
     61 C         1.574713   5.644697   1.448514 C.2        1 UNL1     0.0882
     62 H         4.699396   2.720905   0.569246 H        1 UNL1     0.0365
     63 H         6.34714   3.59102   -0.266258 H        1 UNL1     0.0576
     64 H         8.345915   1.465373   -1.257871 H        1 UNL1     0.0615
     65 H         8.286933   4.582676   -1.449719 H        1 UNL1     0.0622
     66 H         -1.41388   5.333795   0.50356 H        1 UNL1     0.0645
     67 H         -1.846176   3.635604   -0.692047 H        1 UNL1     0.0362
     68 H         -2.529219   2.506312   1.061272 H        1 UNL1     0.0741
     69 H         -1.191946   0.525285   2.207405 H        1 UNL1     0.0359
     70 H         0.913984   0.725738   2.931551 H        1 UNL1     0.0600
     71 H         1.800097   -0.408552   1.308929 H        1 UNL1     0.0348
     72 H         3.363325   1.459098   1.293225 H        1 UNL1     0.0602
     73 H         0.776702   5.406299   -0.456154 H        1 UNL1     0.0628
     74 H         1.557898   5.435538   2.518657 H        1 UNL1     0.1022
     75 H         10.939214   2.215834   -3.469555 H        1 UNL1     0.0279
     76 H         10.814998   3.429253   -4.680128 H        1 UNL1     0.0279
     77 H         11.923273   3.604617   -3.260174 H        1 UNL1     0.0279
     78 H         9.073351   4.773211   -5.038312 H        1 UNL1     0.1553
     79 H         7.791152   3.30543   -4.680807 H        1 UNL1     0.1484
     80 H         4.04011   2.712482   -4.81343 H        1 UNL1     0.0317
     81 H         4.778393   4.237515   -5.281551 H        1 UNL1     0.0317
     82 H         6.685952   3.041262   -6.387851 H        1 UNL1     0.0428
     83 H         5.128053   2.568489   -7.029052 H        1 UNL1     0.0428
     84 H         6.903233   -0.06914   -4.201547 H        1 UNL1     0.0428
     85 H         7.816359   1.338782   -4.617573 H        1 UNL1     0.0428
     86 H         6.526733   1.417326   -2.4832 H        1 UNL1     0.0317
     87 H         5.029291   1.193083   -3.264056 H        1 UNL1     0.0317
     88 H         7.258808   0.85119   -7.388741 H        1 UNL1     0.0429
     89 H         6.892344   -0.634178   -6.508047 H        1 UNL1     0.0429
     90 H         4.353013   0.236233   -7.323126 H        1 UNL1     0.0308
     91 H         6.33545   0.905653   -9.576263 H        1 UNL1     0.0233
     92 H         4.564354   0.810316   -9.74838 H        1 UNL1     0.0233
     93 H         5.28884   2.063839   -8.764305 H        1 UNL1     0.0233
     94 H         4.593926   -1.532346   -9.104371 H        1 UNL1     0.0233
     95 H         6.2837   -1.695596   -8.602035 H        1 UNL1     0.0233
     96 H         4.976096   -2.045619   -7.448065 H        1 UNL1     0.0233
     97 H         4.165658   10.51028   -0.117453 H        1 UNL1     0.0280
     98 H         5.776985   11.121723   -0.376198 H        1 UNL1     0.0280
     99 H         4.600145   11.124448   -1.723332 H        1 UNL1     0.0280
     100 H         6.713439   10.699595   -3.034458 H        1 UNL1     0.2922
     101 H         4.702965   0.887547   2.432094 H        1 UNL1     0.0236
     102 H         6.03422   2.108184   2.494274 H        1 UNL1     0.0236
     103 H         6.314296   0.49344   1.920121 H        1 UNL1     0.0236
     104 H         4.326353   -0.57044   1.272799 H        1 UNL1     0.2098
     105 H         0.711572   1.278786   -0.932288 H        1 UNL1     0.0234
     106 H         1.28889   -0.409766   -1.013488 H        1 UNL1     0.0234
     107 H         0.0   -0.0   0.0 H        1 UNL1     0.0234
     108 H         1.224347   3.255044   1.737257 H        1 UNL1     0.2098
     109 H         1.088347   3.056442   -0.856288 H        1 UNL1     0.0234
     110 H         -0.167005   2.3248   -1.905857 H        1 UNL1     0.0234
     111 H         0.075873   4.036455   -1.896204 H        1 UNL1     0.0234
     112 H         -3.594496   -1.499479   1.464038 H        1 UNL1     0.0342
     113 H         -3.230494   0.137493   2.116775 H        1 UNL1     0.0342
     114 H         -4.424997   -0.066678   0.832466 H        1 UNL1     0.0342
     115 H         -2.645809   1.962581   3.311184 H        1 UNL1     0.0234
     116 H         -1.138689   1.928243   4.232159 H        1 UNL1     0.0234
     117 H         -1.611203   3.309768   3.221334 H        1 UNL1     0.0234
     118 H         0.962433   7.678527   -0.783309 H        1 UNL1     0.0309
     119 H         2.231807   7.77711   -2.043083 H        1 UNL1     0.0309
     120 H         1.47176   6.258557   -1.620615 H        1 UNL1     0.0309
     121 H         -0.263099   6.264929   2.83638 H        1 UNL1     0.0524
     122 H         -2.000857   6.090418   2.559614 H        1 UNL1     0.0524
     123 H         -1.256787   5.337297   3.992413 H        1 UNL1     0.0524
@<TRIPOS>BOND
     1     1     2    1
     2     1    42    1
     3     2     3    2
     4     3     4    1
     5     4     5    2
     6     5     7    1
     7     6    75    1
     8     6    76    1
     9     6    77    1
    10     7     9   am
    11     9    10    1
    12    10    11    2
    13    10    43    1
    14    11    14    1
    15    11    15    1
    16    12    13   ar
    17    12    27   ar
    18    12    43    1
    19    13    14    1
    20    13    30   ar
    21    14    17    2
    22    15    16    1
    23    16    17    1
    24    16    18    1
    25    16    22    1
    26    18    19    1
    27    19    20    1
    28    20    21    1
    29    21    22    1
    30    23    24    1
    31    23    88    1
    32    23    89    1
    33    24    25    1
    34    24    26    1
    35    24    90    1
    36    25    91    1
    37    25    92    1
    38    25    93    1
    39    26    94    1
    40    26    95    1
    41    26    96    1
    42    27    28   ar
    43    28    29   ar
    44    29    30   ar
    45    29    31    1
    46    30    33    1
    47    31    32    1
    48    32    33    1
    49    32    35    1
    50    34    97    1
    51    34    98    1
    52    34    99    1
    53    35    61    1
    54    36    37    1
    55    36    60    1
    56    37    38    1
    57    38    39    1
    58    39    40    1
    59    40    41    1
    60    41    42    1
    61    45   100    1
    62    47   101    1
    63    47   102    1
    64    47   103    1
    65    48   104    1
    66    49   105    1
    67    49   106    1
    68    49   107    1
    69    50   108    1
    70    51    59    1
    71    52   109    1
    72    52   110    1
    73    52   111    1
    74    53    54    1
    75    54    55    2
    76    54    56    1
    77    56   112    1
    78    56   113    1
    79    56   114    1
    80    57   115    1
    81    57   116    1
    82    57   117    1
    83    58   118    1
    84    58   119    1
    85    58   120    1
    86    59   121    1
    87    59   122    1
    88    59   123    1
    89    60    61    2
    90     1    47    1
    91     1    62    1
    92     2    63    1
    93     3    64    1
    94     4    65    1
    95     5     6    1
    96     7     8    2
    97     9    78    1
    98    15    79    1
    99    18    80    1
   100    18    81    1
   101    19    82    1
   102    19    83    1
   103    20    23    1
   104    21    84    1
   105    21    85    1
   106    22    86    1
   107    22    87    1
   108    27    45    1
   109    28    34    1
   110    32    58    1
   111    33    46    2
   112    36    51    1
   113    36    66    1
   114    37    52    1
   115    37    67    1
   116    38    53    1
   117    38    68    1
   118    42    48    1
   119    42    72    1
   120    43    44    2
   121    60    73    1
   122    61    74    1
   123    39    69    1
   124    39    57    1
   125    40    70    1
   126    40    50    1
   127    41    71    1
   128    41    49    1
