@<TRIPOS>MOLECULE
*****
 123 128 0 0 0
SMALL
GASTEIGER

@<TRIPOS>ATOM
     1 C         0.114171   4.094826   0.641976 C.3        1 UNL1     0.0009
     2 C         -1.313639   5.211733   1.030452 C.2        1 UNL1     -0.0787
     3 C         -2.305883   6.176244   0.604759 C.2        1 UNL1     -0.0649
     4 C         -3.573144   6.835556   1.513447 C.2        1 UNL1     -0.0542
     5 C         -4.827072   7.492002   1.451617 C.2        1 UNL1     0.0115
     6 C         -5.827664   8.202949   0.499413 C.3        1 UNL1     -0.0348
     7 C         -5.770147   7.489503   2.750691 C.2        1 UNL1     0.2441
     8 O         -5.880913   8.454455   3.494414 O.2        1 UNL1     -0.2702
     9 N         -6.657618   6.402345   2.832144 N.am        1 UNL1     -0.2772
     10 C         -6.057491   5.339061   3.466649 C.2        1 UNL1     0.1049
     11 C         -5.289173   4.57122   2.715432 C.2        1 UNL1     0.0801
     12 C         -4.738434   4.73216   5.503581 C.ar        1 UNL1     0.0753
     13 C         -3.817118   4.086558   4.618717 C.ar        1 UNL1     0.0305
     14 C         -4.132882   3.872936   3.208147 C.2        1 UNL1     0.0924
     15 N         -5.154744   4.527649   1.37881 N.pl3        1 UNL1     -0.3170
     16 C         -4.321519   3.399478   1.057532 C.3        1 UNL1     0.1275
     17 N         -3.450489   3.21391   2.275971 N.2        1 UNL1     -0.2557
     18 C         -5.226432   2.172824   0.993073 C.3        1 UNL1     0.0016
     19 C         -6.336479   2.439595   -0.011027 C.3        1 UNL1     0.0026
     20 N         -5.736592   2.716936   -1.308812 N.3        1 UNL1     -0.3018
     21 C         -4.801437   3.843544   -1.333482 C.3        1 UNL1     0.0026
     22 C         -3.692389   3.552324   -0.321011 C.3        1 UNL1     0.0016
     23 C         -6.69875   2.689004   -2.392378 C.3        1 UNL1     0.0012
     24 C         -8.120515   2.919116   -1.85629 C.3        1 UNL1     -0.0339
     25 C         -8.377525   2.106126   -0.576818 C.3        1 UNL1     -0.0615
     26 C         -8.35937   4.402392   -1.633532 C.3        1 UNL1     -0.0615
     27 C         -4.482938   4.824449   6.869715 C.ar        1 UNL1     0.1347
     28 C         -3.363643   4.276362   7.470406 C.ar        1 UNL1     0.0342
     29 C         -2.447027   3.688516   6.572957 C.ar        1 UNL1     0.1435
     30 C         -2.672376   3.62065   5.197518 C.ar        1 UNL1     0.0774
     31 O         -1.362172   3.015049   7.014022 O.3        1 UNL1     -0.4436
     32 C         -0.968727   2.194305   5.903863 C.3        1 UNL1     0.3143
     33 C         -1.538623   2.883138   4.680367 C.2        1 UNL1     0.2504
     34 C         -3.146146   4.115717   8.949253 C.3        1 UNL1     -0.0327
     35 O         0.458262   2.273301   5.800356 O.2        1 UNL1     -0.4528
     36 C         1.582062   -1.049974   4.350869 C.3        1 UNL1     0.0854
     37 C         1.157493   -1.741691   2.998541 C.3        1 UNL1     0.0236
     38 C         2.373263   -2.132694   2.028612 C.3        1 UNL1     0.1131
     39 C         3.466261   -1.048987   1.66364 C.3        1 UNL1     0.0200
     40 C         3.014519   0.509053   1.275208 C.3        1 UNL1     0.0661
     41 C         1.823362   0.946878   0.149568 C.3        1 UNL1     0.0091
     42 C         0.67942   2.380813   0.12447 C.3        1 UNL1     0.0661
     43 C         -6.017485   5.221506   4.931891 C.2        1 UNL1     0.2131
     44 O         -7.019013   5.420021   5.59542 O.2        1 UNL1     -0.2851
     45 O         -5.408876   5.508837   7.654375 O.3        1 UNL1     -0.5056
     46 O         -1.134561   2.848815   3.539574 O.2        1 UNL1     -0.2836
     47 C         1.412373   4.924917   0.453294 C.3        1 UNL1     -0.0566
     48 O         0.951789   2.71849   -1.293595 O.3        1 UNL1     -0.3909
     49 C         1.004378   -0.276997   -0.195235 C.3        1 UNL1     -0.0577
     50 O         2.893084   1.30073   2.439779 O.3        1 UNL1     -0.3910
     51 O         2.944048   -0.704437   4.465009 O.3        1 UNL1     -0.3753
     52 C         -0.191689   -1.171073   2.451683 C.3        1 UNL1     -0.0564
     53 O         1.987067   -3.086292   0.935987 O.3        1 UNL1     -0.4608
     54 C         2.773966   -4.096043   0.446986 C.2        1 UNL1     0.3042
     55 O         2.771224   -5.277737   0.789667 O.2        1 UNL1     -0.2512
     56 C         3.682819   -3.663836   -0.668315 C.3        1 UNL1     0.0332
     57 C         4.690987   -1.239802   2.674486 C.3        1 UNL1     -0.0567
     58 C         -1.683324   0.835483   6.089561 C.3        1 UNL1     0.0210
     59 C         3.189214   0.611314   4.95954 C.3        1 UNL1     0.0372
     60 C         0.799663   0.16451   4.708698 C.2        1 UNL1     -0.0208
     61 C         1.204948   1.351044   5.163261 C.2        1 UNL1     0.0882
     62 H         0.108159   3.756061   1.685007 H        1 UNL1     0.0365
     63 H         -1.38602   5.080897   2.11217 H        1 UNL1     0.0576
     64 H         -2.421066   6.453443   -0.44548 H        1 UNL1     0.0615
     65 H         -3.320861   6.569858   2.543613 H        1 UNL1     0.0622
     66 H         1.353101   -1.795054   5.125775 H        1 UNL1     0.0645
     67 H         0.795339   -2.737251   3.308806 H        1 UNL1     0.0362
     68 H         2.890231   -2.864783   2.667606 H        1 UNL1     0.0741
     69 H         3.993156   -1.371494   0.775508 H        1 UNL1     0.0359
     70 H         3.946731   0.863893   0.79549 H        1 UNL1     0.0600
     71 H         2.446782   1.054081   -0.759724 H        1 UNL1     0.0348
     72 H         1.494874   2.655374   0.809281 H        1 UNL1     0.0602
     73 H         -0.236434   -0.064702   4.673877 H        1 UNL1     0.0628
     74 H         2.243136   1.68456   5.176311 H        1 UNL1     0.1022
     75 H         -5.349235   9.090831   0.020034 H        1 UNL1     0.0279
     76 H         -6.171144   7.62996   -0.358943 H        1 UNL1     0.0279
     77 H         -6.665631   8.671531   1.036017 H        1 UNL1     0.0279
     78 H         -6.910831   6.096548   1.894888 H        1 UNL1     0.1553
     79 H         -5.828726   4.905607   0.73863 H        1 UNL1     0.1484
     80 H         -4.626795   1.300926   0.704982 H        1 UNL1     0.0317
     81 H         -5.652667   1.948886   1.976855 H        1 UNL1     0.0317
     82 H         -6.985577   3.267537   0.310058 H        1 UNL1     0.0428
     83 H         -6.970901   1.553184   -0.039912 H        1 UNL1     0.0428
     84 H         -4.305119   3.980556   -2.29925 H        1 UNL1     0.0428
     85 H         -5.310375   4.801192   -1.156824 H        1 UNL1     0.0428
     86 H         -2.961742   4.327274   -0.460996 H        1 UNL1     0.0317
     87 H         -3.15359   2.640813   -0.607261 H        1 UNL1     0.0317
     88 H         -6.452247   3.500929   -3.089019 H        1 UNL1     0.0429
     89 H         -6.63576   1.750142   -2.957483 H        1 UNL1     0.0429
     90 H         -8.846024   2.609992   -2.618058 H        1 UNL1     0.0308
     91 H         -7.582945   1.373977   -0.404472 H        1 UNL1     0.0233
     92 H         -8.452255   2.765305   0.291231 H        1 UNL1     0.0233
     93 H         -9.320684   1.548002   -0.619048 H        1 UNL1     0.0233
     94 H         -9.349644   4.563666   -1.194005 H        1 UNL1     0.0233
     95 H         -7.613707   4.800881   -0.939878 H        1 UNL1     0.0233
     96 H         -8.302658   4.961062   -2.571956 H        1 UNL1     0.0233
     97 H         -3.193222   3.075492   9.257386 H        1 UNL1     0.0280
     98 H         -2.158792   4.478024   9.26409 H        1 UNL1     0.0280
     99 H         -3.92116   4.674402   9.499088 H        1 UNL1     0.0280
     100 H         -6.113589   4.977684   7.981298 H        1 UNL1     0.2922
     101 H         2.268291   4.255317   0.371457 H        1 UNL1     0.0236
     102 H         1.555342   5.678776   1.226753 H        1 UNL1     0.0236
     103 H         1.408213   5.490764   -0.493276 H        1 UNL1     0.0236
     104 H         1.370199   1.938344   -1.707451 H        1 UNL1     0.2098
     105 H         1.069002   -0.58182   -1.236733 H        1 UNL1     0.0234
     106 H         1.166812   -1.132939   0.459674 H        1 UNL1     0.0234
     107 H         0.0   0.0   0.0 H        1 UNL1     0.0234
     108 H         3.797119   1.495752   2.753555 H        1 UNL1     0.2098
     109 H         -0.633661   -1.816192   1.679547 H        1 UNL1     0.0234
     110 H         -0.929955   -0.983038   3.238671 H        1 UNL1     0.0234
     111 H         -0.05353   -0.19071   1.976554 H        1 UNL1     0.0234
     112 H         3.661167   -4.403907   -1.474027 H        1 UNL1     0.0342
     113 H         3.430323   -2.672467   -1.041516 H        1 UNL1     0.0342
     114 H         4.708881   -3.621114   -0.277756 H        1 UNL1     0.0342
     115 H         5.565662   -1.681597   2.177546 H        1 UNL1     0.0234
     116 H         5.018262   -0.315584   3.154862 H        1 UNL1     0.0234
     117 H         4.496608   -1.984426   3.465494 H        1 UNL1     0.0234
     118 H         -1.00242   0.058877   6.479766 H        1 UNL1     0.0309
     119 H         -2.56375   0.898016   6.736973 H        1 UNL1     0.0309
     120 H         -2.03325   0.411606   5.141939 H        1 UNL1     0.0309
     121 H         3.125864   0.57205   6.046647 H        1 UNL1     0.0524
     122 H         4.196936   0.975285   4.698662 H        1 UNL1     0.0524
     123 H         2.451144   1.30439   4.56585 H        1 UNL1     0.0524
@<TRIPOS>BOND
     1     1     2    1
     2     1    42    1
     3     2     3    2
     4     3     4    1
     5     4     5    2
     6     5     7    1
     7     6    75    1
     8     6    76    1
     9     6    77    1
    10     7     9   am
    11     9    10    1
    12    10    11    2
    13    10    43    1
    14    11    14    1
    15    11    15    1
    16    12    13   ar
    17    12    27   ar
    18    12    43    1
    19    13    14    1
    20    13    30   ar
    21    14    17    2
    22    15    16    1
    23    16    17    1
    24    16    18    1
    25    16    22    1
    26    18    19    1
    27    19    20    1
    28    20    21    1
    29    21    22    1
    30    23    24    1
    31    23    88    1
    32    23    89    1
    33    24    25    1
    34    24    26    1
    35    24    90    1
    36    25    91    1
    37    25    92    1
    38    25    93    1
    39    26    94    1
    40    26    95    1
    41    26    96    1
    42    27    28   ar
    43    28    29   ar
    44    29    30   ar
    45    29    31    1
    46    30    33    1
    47    31    32    1
    48    32    33    1
    49    32    35    1
    50    34    97    1
    51    34    98    1
    52    34    99    1
    53    35    61    1
    54    36    37    1
    55    36    60    1
    56    37    38    1
    57    38    39    1
    58    39    40    1
    59    40    41    1
    60    41    42    1
    61    45   100    1
    62    47   101    1
    63    47   102    1
    64    47   103    1
    65    48   104    1
    66    49   105    1
    67    49   106    1
    68    49   107    1
    69    50   108    1
    70    51    59    1
    71    52   109    1
    72    52   110    1
    73    52   111    1
    74    53    54    1
    75    54    55    2
    76    54    56    1
    77    56   112    1
    78    56   113    1
    79    56   114    1
    80    57   115    1
    81    57   116    1
    82    57   117    1
    83    58   118    1
    84    58   119    1
    85    58   120    1
    86    59   121    1
    87    59   122    1
    88    59   123    1
    89    60    61    2
    90     1    47    1
    91     1    62    1
    92     2    63    1
    93     3    64    1
    94     4    65    1
    95     5     6    1
    96     7     8    2
    97     9    78    1
    98    15    79    1
    99    18    80    1
   100    18    81    1
   101    19    82    1
   102    19    83    1
   103    20    23    1
   104    21    84    1
   105    21    85    1
   106    22    86    1
   107    22    87    1
   108    27    45    1
   109    28    34    1
   110    32    58    1
   111    33    46    2
   112    36    51    1
   113    36    66    1
   114    37    52    1
   115    37    67    1
   116    38    53    1
   117    38    68    1
   118    42    48    1
   119    42    72    1
   120    43    44    2
   121    60    73    1
   122    61    74    1
   123    39    69    1
   124    39    57    1
   125    40    70    1
   126    40    50    1
   127    41    71    1
   128    41    49    1
