@<TRIPOS>MOLECULE
*****
 123 128 0 0 0
SMALL
GASTEIGER

@<TRIPOS>ATOM
     1 C         5.167447   1.747395   0.493333 C.3        1 UNL1     0.0009
     2 C         6.604554   2.553478   -0.356367 C.2        1 UNL1     -0.0787
     3 C         7.886589   2.455234   -1.021784 C.2        1 UNL1     -0.0649
     4 C         8.764532   3.690429   -1.77668 C.2        1 UNL1     -0.0542
     5 C         9.78488   3.983178   -2.714904 C.2        1 UNL1     0.0115
     6 C         10.913165   3.357786   -3.580457 C.3        1 UNL1     -0.0348
     7 C         9.880732   5.466635   -3.32084 C.2        1 UNL1     0.2441
     8 O         10.704707   6.28795   -2.942642 O.2        1 UNL1     -0.2702
     9 N         9.130876   5.674208   -4.491643 N.am        1 UNL1     -0.2772
     10 C         7.848167   6.061076   -4.178093 C.2        1 UNL1     0.1049
     11 C         7.002074   5.089755   -3.886744 C.2        1 UNL1     0.0801
     12 C         6.549772   7.667516   -2.767116 C.ar        1 UNL1     0.0753
     13 C         5.790328   6.539615   -2.320245 C.ar        1 UNL1     0.0305
     14 C         5.907126   5.234123   -2.966079 C.2        1 UNL1     0.0924
     15 N         7.124424   3.760806   -4.046287 N.pl3        1 UNL1     -0.3170
     16 C         5.854339   3.161821   -3.732673 C.3        1 UNL1     0.1275
     17 N         5.217899   4.116846   -2.752574 N.2        1 UNL1     -0.2557
     18 C         5.001846   3.221555   -4.996552 C.3        1 UNL1     0.0016
     19 C         5.75687   2.537698   -6.125209 C.3        1 UNL1     0.0026
     20 N         6.026583   1.159392   -5.739782 N.3        1 UNL1     -0.3018
     21 C         6.789568   0.998364   -4.500309 C.3        1 UNL1     0.0026
     22 C         6.010683   1.688657   -3.37927 C.3        1 UNL1     0.0016
     23 C         6.471197   0.340156   -6.849654 C.3        1 UNL1     0.0012
     24 C         5.315958   0.091312   -7.832128 C.3        1 UNL1     -0.0339
     25 C         5.342063   1.09491   -8.996674 C.3        1 UNL1     -0.0615
     26 C         5.355148   -1.343222   -8.329478 C.3        1 UNL1     -0.0615
     27 C         6.345265   8.93506   -2.227092 C.ar        1 UNL1     0.1347
     28 C         5.386012   9.204484   -1.267252 C.ar        1 UNL1     0.0342
     29 C         4.684059   8.070032   -0.807422 C.ar        1 UNL1     0.1435
     30 C         4.903335   6.788137   -1.313272 C.ar        1 UNL1     0.0774
     31 O         3.642865   8.183533   0.045831 O.3        1 UNL1     -0.4436
     32 C         2.920935   6.950935   -0.09697 C.3        1 UNL1     0.3143
     33 C         3.93414   5.957784   -0.62921 C.2        1 UNL1     0.2504
     34 C         4.939377   10.570533   -0.826199 C.3        1 UNL1     -0.0327
     35 O         2.559846   6.513844   1.219015 O.2        1 UNL1     -0.4528
     36 C         -0.683551   4.582566   0.820726 C.3        1 UNL1     0.0854
     37 C         -0.988917   3.322377   -0.07716 C.3        1 UNL1     0.0236
     38 C         -1.589977   2.061192   0.710166 C.3        1 UNL1     0.1131
     39 C         -0.864687   1.529619   2.01157 C.3        1 UNL1     0.0200
     40 C         0.79646   1.383667   2.053122 C.3        1 UNL1     0.0661
     41 C         1.755954   0.615029   0.884286 C.3        1 UNL1     0.0091
     42 C         3.463775   0.977384   0.320859 C.3        1 UNL1     0.0661
     43 C         7.500059   7.45999   -3.887896 C.2        1 UNL1     0.2131
     44 O         7.900342   8.35823   -4.606002 O.2        1 UNL1     -0.2851
     45 O         7.157896   9.970139   -2.685001 O.3        1 UNL1     -0.5056
     46 O         3.94981   4.754199   -0.498857 O.2        1 UNL1     -0.2836
     47 C         5.563332   1.317313   1.931486 C.3        1 UNL1     -0.0566
     48 O         3.911983   -0.433856   0.402261 O.3        1 UNL1     -0.3909
     49 C         0.922035   0.383075   -0.355984 C.3        1 UNL1     -0.0577
     50 O         1.396845   2.601248   2.446514 O.3        1 UNL1     -0.3910
     51 O         -0.808045   4.392429   2.212049 O.3        1 UNL1     -0.3753
     52 C         0.055799   3.162065   -1.229469 C.3        1 UNL1     -0.0564
     53 O         -2.192593   1.022668   -0.190195 O.3        1 UNL1     -0.4608
     54 C         -2.414908   -0.28749   0.144456 C.2        1 UNL1     0.3042
     55 O         -1.84262   -1.280243   -0.303615 O.2        1 UNL1     -0.2512
     56 C         -3.444468   -0.466152   1.223715 C.3        1 UNL1     0.0332
     57 C         -1.585882   2.198341   3.272865 C.3        1 UNL1     -0.0567
     58 C         1.846078   7.196662   -1.181327 C.3        1 UNL1     0.0210
     59 C         -1.152075   5.564892   2.948827 C.3        1 UNL1     0.0372
     60 C         0.645655   5.211414   0.590672 C.2        1 UNL1     -0.0208
     61 C         1.55847   5.646125   1.460465 C.2        1 UNL1     0.0882
     62 H         4.691739   2.73165   0.580822 H        1 UNL1     0.0365
     63 H         6.338531   3.607304   -0.250764 H        1 UNL1     0.0576
     64 H         8.344069   1.488352   -1.243052 H        1 UNL1     0.0615
     65 H         8.27758   4.605821   -1.429668 H        1 UNL1     0.0622
     66 H         -1.427943   5.32938   0.510573 H        1 UNL1     0.0645
     67 H         -1.854235   3.632162   -0.688566 H        1 UNL1     0.0362
     68 H         -2.537033   2.498172   1.061814 H        1 UNL1     0.0741
     69 H         -1.196501   0.518532   2.206537 H        1 UNL1     0.0359
     70 H         0.907854   0.723004   2.934131 H        1 UNL1     0.0600
     71 H         1.799184   -0.406295   1.310885 H        1 UNL1     0.0348
     72 H         3.357762   1.465276   1.300675 H        1 UNL1     0.0602
     73 H         0.76386   5.408993   -0.445782 H        1 UNL1     0.0628
     74 H         1.540603   5.435096   2.530224 H        1 UNL1     0.1022
     75 H         10.957342   2.252444   -3.42781 H        1 UNL1     0.0279
     76 H         10.799825   3.440975   -4.659022 H        1 UNL1     0.0279
     77 H         11.918231   3.662137   -3.253478 H        1 UNL1     0.0279
     78 H         9.068798   4.804455   -5.016765 H        1 UNL1     0.1553
     79 H         7.789747   3.332868   -4.663658 H        1 UNL1     0.1484
     80 H         4.040397   2.730786   -4.802828 H        1 UNL1     0.0317
     81 H         4.775555   4.258456   -5.267256 H        1 UNL1     0.0317
     82 H         6.687723   3.068862   -6.372779 H        1 UNL1     0.0428
     83 H         5.131956   2.593298   -7.017084 H        1 UNL1     0.0428
     84 H         6.909559   -0.044723   -4.191467 H        1 UNL1     0.0428
     85 H         7.819775   1.366185   -4.603742 H        1 UNL1     0.0428
     86 H         6.526817   1.437859   -2.471144 H        1 UNL1     0.0317
     87 H         5.031091   1.211213   -3.25459 H        1 UNL1     0.0317
     88 H         7.267523   0.881941   -7.376558 H        1 UNL1     0.0429
     89 H         6.903476   -0.605841   -6.498942 H        1 UNL1     0.0429
     90 H         4.362989   0.198067   -7.300465 H        1 UNL1     0.0308
     91 H         6.292294   1.052139   -9.537353 H        1 UNL1     0.0233
     92 H         4.523758   0.899304   -9.693613 H        1 UNL1     0.0233
     93 H         5.21479   2.130423   -8.658517 H        1 UNL1     0.0233
     94 H         4.659048   -1.472349   -9.165304 H        1 UNL1     0.0233
     95 H         6.359551   -1.587617   -8.686421 H        1 UNL1     0.0233
     96 H         5.08041   -2.047263   -7.539026 H        1 UNL1     0.0233
     97 H         4.145841   10.520693   -0.086574 H        1 UNL1     0.0280
     98 H         5.752148   11.140223   -0.357036 H        1 UNL1     0.0280
     99 H         4.566052   11.135451   -1.696022 H        1 UNL1     0.0280
     100 H         6.691127   10.720971   -3.007491 H        1 UNL1     0.2922
     101 H         4.700289   0.883709   2.436264 H        1 UNL1     0.0236
     102 H         6.014161   2.122355   2.510835 H        1 UNL1     0.0236
     103 H         6.319391   0.514464   1.930305 H        1 UNL1     0.0236
     104 H         4.331269   -0.56024   1.275873 H        1 UNL1     0.2098
     105 H         0.709745   1.28215   -0.929053 H        1 UNL1     0.0234
     106 H         1.2914   -0.404814   -1.012282 H        1 UNL1     0.0234
     107 H         0.0   -0.0   0.0 H        1 UNL1     0.0234
     108 H         1.198626   3.25978   1.753108 H        1 UNL1     0.2098
     109 H         1.080512   3.048218   -0.849057 H        1 UNL1     0.0234
     110 H         -0.17667   2.335248   -1.909231 H        1 UNL1     0.0234
     111 H         0.077364   4.045092   -1.88196 H        1 UNL1     0.0234
     112 H         -3.567551   -1.530014   1.448198 H        1 UNL1     0.0342
     113 H         -3.197482   0.096798   2.122564 H        1 UNL1     0.0342
     114 H         -4.405025   -0.088004   0.847551 H        1 UNL1     0.0342
     115 H         -2.65012   1.930149   3.324425 H        1 UNL1     0.0234
     116 H         -1.13464   1.937368   4.2322 H        1 UNL1     0.0234
     117 H         -1.646074   3.29867   3.212915 H        1 UNL1     0.0234
     118 H         0.945017   7.683643   -0.769084 H        1 UNL1     0.0309
     119 H         2.215797   7.784841   -2.027233 H        1 UNL1     0.0309
     120 H         1.457393   6.264937   -1.606672 H        1 UNL1     0.0309
     121 H         -0.347639   6.287303   2.813325 H        1 UNL1     0.0524
     122 H         -2.082034   6.031083   2.582932 H        1 UNL1     0.0524
     123 H         -1.268078   5.326272   4.002249 H        1 UNL1     0.0524
@<TRIPOS>BOND
     1     1     2    1
     2     1    42    1
     3     2     3    2
     4     3     4    1
     5     4     5    2
     6     5     7    1
     7     6    75    1
     8     6    76    1
     9     6    77    1
    10     7     9   am
    11     9    10    1
    12    10    11    2
    13    10    43    1
    14    11    14    1
    15    11    15    1
    16    12    13   ar
    17    12    27   ar
    18    12    43    1
    19    13    14    1
    20    13    30   ar
    21    14    17    2
    22    15    16    1
    23    16    17    1
    24    16    18    1
    25    16    22    1
    26    18    19    1
    27    19    20    1
    28    20    21    1
    29    21    22    1
    30    23    24    1
    31    23    88    1
    32    23    89    1
    33    24    25    1
    34    24    26    1
    35    24    90    1
    36    25    91    1
    37    25    92    1
    38    25    93    1
    39    26    94    1
    40    26    95    1
    41    26    96    1
    42    27    28   ar
    43    28    29   ar
    44    29    30   ar
    45    29    31    1
    46    30    33    1
    47    31    32    1
    48    32    33    1
    49    32    35    1
    50    34    97    1
    51    34    98    1
    52    34    99    1
    53    35    61    1
    54    36    37    1
    55    36    60    1
    56    37    38    1
    57    38    39    1
    58    39    40    1
    59    40    41    1
    60    41    42    1
    61    45   100    1
    62    47   101    1
    63    47   102    1
    64    47   103    1
    65    48   104    1
    66    49   105    1
    67    49   106    1
    68    49   107    1
    69    50   108    1
    70    51    59    1
    71    52   109    1
    72    52   110    1
    73    52   111    1
    74    53    54    1
    75    54    55    2
    76    54    56    1
    77    56   112    1
    78    56   113    1
    79    56   114    1
    80    57   115    1
    81    57   116    1
    82    57   117    1
    83    58   118    1
    84    58   119    1
    85    58   120    1
    86    59   121    1
    87    59   122    1
    88    59   123    1
    89    60    61    2
    90     1    47    1
    91     1    62    1
    92     2    63    1
    93     3    64    1
    94     4    65    1
    95     5     6    1
    96     7     8    2
    97     9    78    1
    98    15    79    1
    99    18    80    1
   100    18    81    1
   101    19    82    1
   102    19    83    1
   103    20    23    1
   104    21    84    1
   105    21    85    1
   106    22    86    1
   107    22    87    1
   108    27    45    1
   109    28    34    1
   110    32    58    1
   111    33    46    2
   112    36    51    1
   113    36    66    1
   114    37    52    1
   115    37    67    1
   116    38    53    1
   117    38    68    1
   118    42    48    1
   119    42    72    1
   120    43    44    2
   121    60    73    1
   122    61    74    1
   123    39    69    1
   124    39    57    1
   125    40    70    1
   126    40    50    1
   127    41    71    1
   128    41    49    1
