@<TRIPOS>MOLECULE
*****
 123 128 0 0 0
SMALL
GASTEIGER

@<TRIPOS>ATOM
     1 C         4.329874   2.384202   -2.359458 C.3        1 UNL1     0.0009
     2 C         5.841319   2.135489   -3.403831 C.2        1 UNL1     -0.0787
     3 C         7.276306   1.982991   -3.520457 C.2        1 UNL1     -0.0649
     4 C         8.175368   1.626876   -4.910143 C.2        1 UNL1     -0.0542
     5 C         9.409714   1.132876   -5.399461 C.2        1 UNL1     0.0115
     6 C         10.852122   0.727106   -4.989422 C.3        1 UNL1     -0.0348
     7 C         9.497991   0.634536   -6.922895 C.2        1 UNL1     0.2441
     8 O         10.001311   1.304582   -7.814092 O.2        1 UNL1     -0.2702
     9 N         9.196579   -0.724836   -7.116314 N.am        1 UNL1     -0.2772
     10 C         7.844935   -0.894085   -7.310569 C.2        1 UNL1     0.1049
     11 C         7.10291   -0.952256   -6.21959 C.2        1 UNL1     0.0801
     12 C         5.906079   -0.02282   -8.629307 C.ar        1 UNL1     0.0753
     13 C         5.211068   0.092192   -7.383378 C.ar        1 UNL1     0.0305
     14 C         5.741996   -0.492892   -6.154214 C.2        1 UNL1     0.0924
     15 N         7.467854   -1.083278   -4.932665 N.pl3        1 UNL1     -0.3170
     16 C         6.272407   -1.268099   -4.153562 C.3        1 UNL1     0.1275
     17 N         5.193911   -0.569148   -4.944786 N.2        1 UNL1     -0.2557
     18 C         5.931477   -2.754643   -4.194274 C.3        1 UNL1     0.0016
     19 C         7.132833   -3.54291   -3.697315 C.3        1 UNL1     0.0026
     20 N         7.445249   -3.113951   -2.341063 N.3        1 UNL1     -0.3018
     21 C         7.727288   -1.684923   -2.19039 C.3        1 UNL1     0.0026
     22 C         6.505728   -0.912337   -2.691186 C.3        1 UNL1     0.0016
     23 C         8.373588   -4.001006   -1.668781 C.3        1 UNL1     0.0012
     24 C         7.697848   -5.342713   -1.344816 C.3        1 UNL1     -0.0339
     25 C         8.006967   -6.401242   -2.416273 C.3        1 UNL1     -0.0615
     26 C         8.109299   -5.812116   0.039795 C.3        1 UNL1     -0.0615
     27 C         5.337847   0.430958   -9.817296 C.ar        1 UNL1     0.1347
     28 C         4.069611   0.978956   -9.890272 C.ar        1 UNL1     0.0342
     29 C         3.423903   1.126911   -8.644345 C.ar        1 UNL1     0.1435
     30 C         3.995588   0.710039   -7.441593 C.ar        1 UNL1     0.0774
     31 O         2.141261   1.542564   -8.560273 O.3        1 UNL1     -0.4436
     32 C         1.707831   1.120426   -7.258424 C.3        1 UNL1     0.3143
     33 C         2.978463   0.975192   -6.445643 C.2        1 UNL1     0.2504
     34 C         3.299269   1.254136   -11.151601 C.3        1 UNL1     -0.0327
     35 O         0.966754   2.204015   -6.684061 O.2        1 UNL1     -0.4528
     36 C         -1.596728   0.607922   -4.384248 C.3        1 UNL1     0.0854
     37 C         -1.371117   -0.365123   -3.163673 C.3        1 UNL1     0.0236
     38 C         -2.022784   0.121865   -1.781675 C.3        1 UNL1     0.1131
     39 C         -1.743376   1.587132   -1.255183 C.3        1 UNL1     0.0200
     40 C         -0.205684   2.230125   -1.322281 C.3        1 UNL1     0.0661
     41 C         1.211001   1.477484   -0.770788 C.3        1 UNL1     0.0091
     42 C         2.934309   1.585022   -1.390506 C.3        1 UNL1     0.0661
     43 C         7.214738   -0.722585   -8.628064 C.2        1 UNL1     0.2131
     44 O         7.709718   -1.226021   -9.620175 O.2        1 UNL1     -0.2851
     45 O         6.09946   0.323214   -10.979094 O.3        1 UNL1     -0.5056
     46 O         3.122636   1.077502   -5.247895 O.2        1 UNL1     -0.2836
     47 C         4.241679   3.858372   -1.880891 C.3        1 UNL1     -0.0566
     48 O         3.525208   1.795655   -0.046784 O.3        1 UNL1     -0.3909
     49 C         0.921497   0.01371   -0.523714 C.3        1 UNL1     -0.0577
     50 O         0.027968   2.840703   -2.575407 O.3        1 UNL1     -0.3910
     51 O         -2.182977   1.853188   -4.079196 O.3        1 UNL1     -0.3753
     52 C         0.028976   -1.058735   -3.223601 C.3        1 UNL1     -0.0564
     53 O         -2.102791   -0.957607   -0.742125 O.3        1 UNL1     -0.4608
     54 C         -2.249307   -0.754692   0.605201 C.2        1 UNL1     0.3042
     55 O         -1.421089   -0.97481   1.488061 O.2        1 UNL1     -0.2512
     56 C         -3.568337   -0.141882   0.981152 C.3        1 UNL1     0.0332
     57 C         -2.958935   2.510881   -1.731919 C.3        1 UNL1     -0.0567
     58 C         1.07022   -0.276543   -7.441346 C.3        1 UNL1     0.0210
     59 C         -2.910227   2.45191   -5.15088 C.3        1 UNL1     0.0372
     60 C         -0.381157   0.892727   -5.194454 C.2        1 UNL1     -0.0208
     61 C         0.084309   2.044765   -5.679115 C.2        1 UNL1     0.0882
     62 H         3.715628   2.311906   -3.2651 H        1 UNL1     0.0365
     63 H         5.40365   2.15814   -4.404032 H        1 UNL1     0.0576
     64 H         7.919218   1.924493   -2.63935 H        1 UNL1     0.0615
     65 H         7.467708   1.790553   -5.727401 H        1 UNL1     0.0622
     66 H         -2.281094   0.062494   -5.049228 H        1 UNL1     0.0645
     67 H         -1.994728   -1.244066   -3.402686 H        1 UNL1     0.0362
     68 H         -3.086056   0.111814   -2.06606 H        1 UNL1     0.0741
     69 H         -1.970927   1.626479   -0.198263 H        1 UNL1     0.0359
     70 H         -0.322328   3.0771   -0.619367 H        1 UNL1     0.0600
     71 H         1.247518   1.869284   0.264643 H        1 UNL1     0.0348
     72 H         2.413356   2.468043   -1.788246 H        1 UNL1     0.0602
     73 H         0.070833   -0.024464   -5.48031 H        1 UNL1     0.0628
     74 H         -0.285173   3.029356   -5.390495 H        1 UNL1     0.1022
     75 H         11.000163   0.862602   -3.890896 H        1 UNL1     0.0279
     76 H         11.122571   -0.316275   -5.13531 H        1 UNL1     0.0279
     77 H         11.616569   1.405082   -5.396449 H        1 UNL1     0.0279
     78 H         9.455393   -1.254043   -6.286234 H        1 UNL1     0.1553
     79 H         8.36548   -1.423311   -4.640129 H        1 UNL1     0.1484
     80 H         5.047683   -2.935964   -3.570737 H        1 UNL1     0.0317
     81 H         5.66798   -3.067983   -5.210166 H        1 UNL1     0.0317
     82 H         8.001827   -3.422051   -4.360756 H        1 UNL1     0.0428
     83 H         6.868764   -4.600169   -3.73633 H        1 UNL1     0.0428
     84 H         7.880019   -1.375085   -1.151889 H        1 UNL1     0.0428
     85 H         8.660085   -1.396969   -2.694659 H        1 UNL1     0.0428
     86 H         6.692321   0.116265   -2.443903 H        1 UNL1     0.0317
     87 H         5.628038   -1.164266   -2.083495 H        1 UNL1     0.0317
     88 H         9.21728   -4.189045   -2.345625 H        1 UNL1     0.0429
     89 H         8.784911   -3.536037   -0.763578 H        1 UNL1     0.0429
     90 H         6.612029   -5.196735   -1.301216 H        1 UNL1     0.0308
     91 H         9.084816   -6.555662   -2.523496 H        1 UNL1     0.0233
     92 H         7.531309   -7.352857   -2.167702 H        1 UNL1     0.0233
     93 H         7.626234   -6.118156   -3.40508 H        1 UNL1     0.0233
     94 H         7.788944   -6.847535   0.198277 H        1 UNL1     0.0233
     95 H         9.197927   -5.777276   0.137959 H        1 UNL1     0.0233
     96 H         7.664332   -5.189317   0.82088 H        1 UNL1     0.0233
     97 H         2.308515   1.648373   -10.946139 H        1 UNL1     0.0280
     98 H         3.794949   2.00184   -11.784448 H        1 UNL1     0.0280
     99 H         3.187224   0.320451   -11.72673 H        1 UNL1     0.0280
     100 H         5.674838   -0.132111   -11.684783 H        1 UNL1     0.2922
     101 H         3.328564   4.003651   -1.304027 H        1 UNL1     0.0236
     102 H         4.331232   4.578839   -2.693227 H        1 UNL1     0.0236
     103 H         5.056761   4.117203   -1.184587 H        1 UNL1     0.0236
     104 H         3.616669   2.759286   0.087456 H        1 UNL1     0.2098
     105 H         0.799645   -0.578706   -1.427045 H        1 UNL1     0.0234
     106 H         1.613078   -0.478143   0.160189 H        1 UNL1     0.0234
     107 H         0.0   0.0   0.0 H        1 UNL1     0.0234
     108 H         -0.001742   2.136406   -3.251315 H        1 UNL1     0.2098
     109 H         0.853687   -0.332442   -3.215702 H        1 UNL1     0.0234
     110 H         0.179934   -1.793255   -2.425205 H        1 UNL1     0.0234
     111 H         0.153544   -1.639887   -4.147014 H        1 UNL1     0.0234
     112 H         -3.617108   0.000527   2.064981 H        1 UNL1     0.0342
     113 H         -3.749572   0.79444   0.455511 H        1 UNL1     0.0342
     114 H         -4.365548   -0.842649   0.697346 H        1 UNL1     0.0342
     115 H         -3.922123   2.149834   -1.345781 H        1 UNL1     0.0234
     116 H         -2.860698   3.55874   -1.441418 H        1 UNL1     0.0234
     117 H         -3.138538   2.474582   -2.820205 H        1 UNL1     0.0234
     118 H         0.020263   -0.212364   -7.776722 H        1 UNL1     0.0309
     119 H         1.628371   -0.916443   -8.132141 H        1 UNL1     0.0309
     120 H         1.001252   -0.833584   -6.500573 H        1 UNL1     0.0309
     121 H         -2.207278   2.639445   -5.962083 H        1 UNL1     0.0524
     122 H         -3.699794   1.789084   -5.542393 H        1 UNL1     0.0524
     123 H         -3.3624   3.383908   -4.823753 H        1 UNL1     0.0524
@<TRIPOS>BOND
     1     1     2    1
     2     1    42    1
     3     2     3    2
     4     3     4    1
     5     4     5    2
     6     5     7    1
     7     6    75    1
     8     6    76    1
     9     6    77    1
    10     7     9   am
    11     9    10    1
    12    10    11    2
    13    10    43    1
    14    11    14    1
    15    11    15    1
    16    12    13   ar
    17    12    27   ar
    18    12    43    1
    19    13    14    1
    20    13    30   ar
    21    14    17    2
    22    15    16    1
    23    16    17    1
    24    16    18    1
    25    16    22    1
    26    18    19    1
    27    19    20    1
    28    20    21    1
    29    21    22    1
    30    23    24    1
    31    23    88    1
    32    23    89    1
    33    24    25    1
    34    24    26    1
    35    24    90    1
    36    25    91    1
    37    25    92    1
    38    25    93    1
    39    26    94    1
    40    26    95    1
    41    26    96    1
    42    27    28   ar
    43    28    29   ar
    44    29    30   ar
    45    29    31    1
    46    30    33    1
    47    31    32    1
    48    32    33    1
    49    32    35    1
    50    34    97    1
    51    34    98    1
    52    34    99    1
    53    35    61    1
    54    36    37    1
    55    36    60    1
    56    37    38    1
    57    38    39    1
    58    39    40    1
    59    40    41    1
    60    41    42    1
    61    45   100    1
    62    47   101    1
    63    47   102    1
    64    47   103    1
    65    48   104    1
    66    49   105    1
    67    49   106    1
    68    49   107    1
    69    50   108    1
    70    51    59    1
    71    52   109    1
    72    52   110    1
    73    52   111    1
    74    53    54    1
    75    54    55    2
    76    54    56    1
    77    56   112    1
    78    56   113    1
    79    56   114    1
    80    57   115    1
    81    57   116    1
    82    57   117    1
    83    58   118    1
    84    58   119    1
    85    58   120    1
    86    59   121    1
    87    59   122    1
    88    59   123    1
    89    60    61    2
    90     1    47    1
    91     1    62    1
    92     2    63    1
    93     3    64    1
    94     4    65    1
    95     5     6    1
    96     7     8    2
    97     9    78    1
    98    15    79    1
    99    18    80    1
   100    18    81    1
   101    19    82    1
   102    19    83    1
   103    20    23    1
   104    21    84    1
   105    21    85    1
   106    22    86    1
   107    22    87    1
   108    27    45    1
   109    28    34    1
   110    32    58    1
   111    33    46    2
   112    36    51    1
   113    36    66    1
   114    37    52    1
   115    37    67    1
   116    38    53    1
   117    38    68    1
   118    42    48    1
   119    42    72    1
   120    43    44    2
   121    60    73    1
   122    61    74    1
   123    39    69    1
   124    39    57    1
   125    40    70    1
   126    40    50    1
   127    41    71    1
   128    41    49    1
