@<TRIPOS>MOLECULE
*****
 123 128 0 0 0
SMALL
GASTEIGER

@<TRIPOS>ATOM
     1 C         5.167919   1.744171   0.500064 C.3        1 UNL1     0.0009
     2 C         6.606519   2.549588   -0.347739 C.2        1 UNL1     -0.0787
     3 C         7.889374   2.450747   -1.011487 C.2        1 UNL1     -0.0649
     4 C         8.768892   3.685541   -1.765203 C.2        1 UNL1     -0.0542
     5 C         9.790603   3.977827   -2.702089 C.2        1 UNL1     0.0115
     6 C         10.919715   3.351918   -3.566187 C.3        1 UNL1     -0.0348
     7 C         9.887956   5.461254   -3.307857 C.2        1 UNL1     0.2441
     8 O         10.711831   6.282163   -2.928563 O.2        1 UNL1     -0.2702
     9 N         9.139726   5.669219   -4.479631 N.am        1 UNL1     -0.2772
     10 C         7.856795   6.056694   -4.167742 C.2        1 UNL1     0.1049
     11 C         7.009857   5.085771   -3.877524 C.2        1 UNL1     0.0801
     12 C         6.557333   7.663717   -2.758415 C.ar        1 UNL1     0.0753
     13 C         5.796766   6.536169   -2.312566 C.ar        1 UNL1     0.0305
     14 C         5.91378   5.230639   -2.958283 C.2        1 UNL1     0.0924
     15 N         7.131778   3.756768   -4.036944 N.pl3        1 UNL1     -0.3170
     16 C         5.860998   3.158383   -3.725003 C.3        1 UNL1     0.1275
     17 N         5.223739   4.113687   -2.745708 N.2        1 UNL1     -0.2557
     18 C         5.010182   3.218561   -4.98999 C.3        1 UNL1     0.0016
     19 C         5.766349   2.534373   -6.117682 C.3        1 UNL1     0.0026
     20 N         6.034898   1.155927   -5.731942 N.3        1 UNL1     -0.3018
     21 C         6.796189   0.994499   -4.49148 C.3        1 UNL1     0.0026
     22 C         6.016174   1.685135   -3.371438 C.3        1 UNL1     0.0016
     23 C         6.480565   0.336508   -6.841256 C.3        1 UNL1     0.0012
     24 C         5.325371   0.084606   -7.823004 C.3        1 UNL1     -0.0339
     25 C         5.34399   1.092634   -8.983862 C.3        1 UNL1     -0.0615
     26 C         5.372146   -1.34783   -8.325715 C.3        1 UNL1     -0.0615
     27 C         6.35273   8.931345   -2.218623 C.ar        1 UNL1     0.1347
     28 C         5.392356   9.201203   -1.260025 C.ar        1 UNL1     0.0342
     29 C         4.68926   8.067075   -0.801143 C.ar        1 UNL1     0.1435
     30 C         4.908581   6.785089   -1.306742 C.ar        1 UNL1     0.0774
     31 O         3.64701   8.181052   0.050755 O.3        1 UNL1     -0.4436
     32 C         2.924675   6.948805   -0.093021 C.3        1 UNL1     0.3143
     33 C         3.938097   5.955182   -0.623967 C.2        1 UNL1     0.2504
     34 C         4.945802   10.567455   -0.819518 C.3        1 UNL1     -0.0327
     35 O         2.561661   6.511851   1.22248 O.2        1 UNL1     -0.4528
     36 C         -0.682139   4.58214   0.819909 C.3        1 UNL1     0.0854
     37 C         -0.986939   3.322123   -0.078409 C.3        1 UNL1     0.0236
     38 C         -1.58963   2.061204   0.708097 C.3        1 UNL1     0.1131
     39 C         -0.866292   1.529248   2.010431 C.3        1 UNL1     0.0200
     40 C         0.794729   1.382498   2.054144 C.3        1 UNL1     0.0661
     41 C         1.755377   0.613432   0.886539 C.3        1 UNL1     0.0091
     42 C         3.464105   0.974983   0.325348 C.3        1 UNL1     0.0661
     43 C         7.50898   7.455766   -3.877961 C.2        1 UNL1     0.2131
     44 O         7.91063   8.353834   -4.595519 O.2        1 UNL1     -0.2851
     45 O         7.166454   9.966047   -2.675442 O.3        1 UNL1     -0.5056
     46 O         3.95302   4.751587   -0.493627 O.2        1 UNL1     -0.2836
     47 C         5.561723   1.313861   1.938721 C.3        1 UNL1     -0.0566
     48 O         3.911529   -0.436474   0.407295 O.3        1 UNL1     -0.3909
     49 C         0.922964   0.381912   -0.354824 C.3        1 UNL1     -0.0577
     50 O         1.395185   2.59978   2.448353 O.3        1 UNL1     -0.3910
     51 O         -0.808539   4.392025   2.211064 O.3        1 UNL1     -0.3753
     52 C         0.059201   3.161341   -1.22936 C.3        1 UNL1     -0.0564
     53 O         -2.191571   1.022995   -0.193077 O.3        1 UNL1     -0.4608
     54 C         -2.41534   -0.286963   0.141389 C.2        1 UNL1     0.3042
     55 O         -1.843183   -1.280191   -0.305794 O.2        1 UNL1     -0.2512
     56 C         -3.446529   -0.464743   1.219237 C.3        1 UNL1     0.0332
     57 C         -1.58881   2.198281   3.270803 C.3        1 UNL1     -0.0567
     58 C         1.851351   7.195077   -1.178772 C.3        1 UNL1     0.0210
     59 C         -1.16067   5.562929   2.946492 C.3        1 UNL1     0.0372
     60 C         0.647666   5.210357   0.591606 C.2        1 UNL1     -0.0208
     61 C         1.559555   5.644606   1.4626 C.2        1 UNL1     0.0882
     62 H         4.69257   2.728653   0.586961 H        1 UNL1     0.0365
     63 H         6.340865   3.603539   -0.242453 H        1 UNL1     0.0576
     64 H         8.346678   1.483652   -1.232185 H        1 UNL1     0.0615
     65 H         8.281927   4.601158   -1.4188 H        1 UNL1     0.0622
     66 H         -1.425768   5.32932   0.508807 H        1 UNL1     0.0645
     67 H         -1.851311   3.632339   -0.690934 H        1 UNL1     0.0362
     68 H         -2.536934   2.498629   1.058522 H        1 UNL1     0.0741
     69 H         -1.198845   0.518315   2.204937 H        1 UNL1     0.0359
     70 H         0.904657   0.721757   2.935279 H        1 UNL1     0.0600
     71 H         1.797561   -0.407924   1.313165 H        1 UNL1     0.0348
     72 H         3.357048   1.462899   1.305038 H        1 UNL1     0.0602
     73 H         0.767317   5.407907   -0.444688 H        1 UNL1     0.0628
     74 H         1.540193   5.433556   2.532329 H        1 UNL1     0.1022
     75 H         10.963163   2.24655   -3.413513 H        1 UNL1     0.0279
     76 H         10.807821   3.43519   -4.644897 H        1 UNL1     0.0279
     77 H         11.924499   3.655777   -3.23789 H        1 UNL1     0.0279
     78 H         9.077916   4.79951   -5.004858 H        1 UNL1     0.1553
     79 H         7.7977   3.328528   -4.653459 H        1 UNL1     0.1484
     80 H         4.048247   2.728248   -4.797533 H        1 UNL1     0.0317
     81 H         4.784741   4.255577   -5.26096 H        1 UNL1     0.0317
     82 H         6.697779   3.065096   -6.364023 H        1 UNL1     0.0428
     83 H         5.142624   2.590297   -7.010369 H        1 UNL1     0.0428
     84 H         6.915277   -0.048654   -4.182511 H        1 UNL1     0.0428
     85 H         7.826706   1.361828   -4.59356 H        1 UNL1     0.0428
     86 H         6.531004   1.434064   -2.462647 H        1 UNL1     0.0317
     87 H         5.036192   1.208158   -3.248048 H        1 UNL1     0.0317
     88 H         7.27565   0.879298   -7.368999 H        1 UNL1     0.0429
     89 H         6.914763   -0.608358   -6.489866 H        1 UNL1     0.0429
     90 H         4.372567   0.183876   -7.289597 H        1 UNL1     0.0308
     91 H         6.291904   1.054098   -9.528909 H        1 UNL1     0.0233
     92 H         4.523047   0.897752   -9.677897 H        1 UNL1     0.0233
     93 H         5.215838   2.12657   -8.641243 H        1 UNL1     0.0233
     94 H         4.675601   -1.477899   -9.161025 H        1 UNL1     0.0233
     95 H         6.377431   -1.585082   -8.684986 H        1 UNL1     0.0233
     96 H         5.102626   -2.056365   -7.537486 H        1 UNL1     0.0233
     97 H         4.151279   10.517975   -0.080928 H        1 UNL1     0.0280
     98 H         5.758234   11.136741   -0.349279 H        1 UNL1     0.0280
     99 H         4.573882   11.132575   -1.689811 H        1 UNL1     0.0280
     100 H         6.700459   10.716718   -2.999422 H        1 UNL1     0.2922
     101 H         4.698218   0.879234   2.441824 H        1 UNL1     0.0236
     102 H         6.010791   2.119084   2.519184 H        1 UNL1     0.0236
     103 H         6.318538   0.511724   1.938511 H        1 UNL1     0.0236
     104 H         4.33088   -0.562714   1.280896 H        1 UNL1     0.2098
     105 H         0.712486   1.280995   -0.928549 H        1 UNL1     0.0234
     106 H         1.292387   -0.406645   -1.010286 H        1 UNL1     0.0234
     107 H         0.0   -0.0   0.0 H        1 UNL1     0.0234
     108 H         1.19579   3.259159   1.756089 H        1 UNL1     0.2098
     109 H         1.082591   3.040801   -0.847452 H        1 UNL1     0.0234
     110 H         -0.176073   2.338508   -1.91298 H        1 UNL1     0.0234
     111 H         0.086444   4.046933   -1.878151 H        1 UNL1     0.0234
     112 H         -3.574119   -1.528778   1.440358 H        1 UNL1     0.0342
     113 H         -3.198021   0.094447   2.120012 H        1 UNL1     0.0342
     114 H         -4.405225   -0.081548   0.843432 H        1 UNL1     0.0342
     115 H         -2.653243   1.930598   3.320969 H        1 UNL1     0.0234
     116 H         -1.138944   1.937066   4.230718 H        1 UNL1     0.0234
     117 H         -1.648396   3.298641   3.210806 H        1 UNL1     0.0234
     118 H         0.949987   7.682479   -0.76769 H        1 UNL1     0.0309
     119 H         2.222454   7.783102   -2.024178 H        1 UNL1     0.0309
     120 H         1.462773   6.26355   -1.604649 H        1 UNL1     0.0309
     121 H         -0.361477   6.290907   2.809761 H        1 UNL1     0.0524
     122 H         -2.094082   6.021987   2.580373 H        1 UNL1     0.0524
     123 H         -1.274557   5.324821   4.000261 H        1 UNL1     0.0524
@<TRIPOS>BOND
     1     1     2    1
     2     1    42    1
     3     2     3    2
     4     3     4    1
     5     4     5    2
     6     5     7    1
     7     6    75    1
     8     6    76    1
     9     6    77    1
    10     7     9   am
    11     9    10    1
    12    10    11    2
    13    10    43    1
    14    11    14    1
    15    11    15    1
    16    12    13   ar
    17    12    27   ar
    18    12    43    1
    19    13    14    1
    20    13    30   ar
    21    14    17    2
    22    15    16    1
    23    16    17    1
    24    16    18    1
    25    16    22    1
    26    18    19    1
    27    19    20    1
    28    20    21    1
    29    21    22    1
    30    23    24    1
    31    23    88    1
    32    23    89    1
    33    24    25    1
    34    24    26    1
    35    24    90    1
    36    25    91    1
    37    25    92    1
    38    25    93    1
    39    26    94    1
    40    26    95    1
    41    26    96    1
    42    27    28   ar
    43    28    29   ar
    44    29    30   ar
    45    29    31    1
    46    30    33    1
    47    31    32    1
    48    32    33    1
    49    32    35    1
    50    34    97    1
    51    34    98    1
    52    34    99    1
    53    35    61    1
    54    36    37    1
    55    36    60    1
    56    37    38    1
    57    38    39    1
    58    39    40    1
    59    40    41    1
    60    41    42    1
    61    45   100    1
    62    47   101    1
    63    47   102    1
    64    47   103    1
    65    48   104    1
    66    49   105    1
    67    49   106    1
    68    49   107    1
    69    50   108    1
    70    51    59    1
    71    52   109    1
    72    52   110    1
    73    52   111    1
    74    53    54    1
    75    54    55    2
    76    54    56    1
    77    56   112    1
    78    56   113    1
    79    56   114    1
    80    57   115    1
    81    57   116    1
    82    57   117    1
    83    58   118    1
    84    58   119    1
    85    58   120    1
    86    59   121    1
    87    59   122    1
    88    59   123    1
    89    60    61    2
    90     1    47    1
    91     1    62    1
    92     2    63    1
    93     3    64    1
    94     4    65    1
    95     5     6    1
    96     7     8    2
    97     9    78    1
    98    15    79    1
    99    18    80    1
   100    18    81    1
   101    19    82    1
   102    19    83    1
   103    20    23    1
   104    21    84    1
   105    21    85    1
   106    22    86    1
   107    22    87    1
   108    27    45    1
   109    28    34    1
   110    32    58    1
   111    33    46    2
   112    36    51    1
   113    36    66    1
   114    37    52    1
   115    37    67    1
   116    38    53    1
   117    38    68    1
   118    42    48    1
   119    42    72    1
   120    43    44    2
   121    60    73    1
   122    61    74    1
   123    39    69    1
   124    39    57    1
   125    40    70    1
   126    40    50    1
   127    41    71    1
   128    41    49    1
