@<TRIPOS>MOLECULE
*****
 123 128 0 0 0
SMALL
GASTEIGER

@<TRIPOS>ATOM
     1 C         -3.536862   -1.022763   -2.114416 C.3        1 UNL1     0.0009
     2 C         -3.822044   -2.501275   -3.195948 C.2        1 UNL1     -0.0787
     3 C         -3.968952   -3.084628   -4.512824 C.2        1 UNL1     -0.0649
     4 C         -4.118746   -4.722462   -4.914593 C.2        1 UNL1     -0.0542
     5 C         -3.989264   -5.68041   -5.950281 C.2        1 UNL1     0.0115
     6 C         -3.773105   -5.857414   -7.478439 C.3        1 UNL1     -0.0348
     7 C         -3.884476   -7.234596   -5.562316 C.2        1 UNL1     0.2441
     8 O         -4.824785   -8.010553   -5.66348 O.2        1 UNL1     -0.2702
     9 N         -2.575875   -7.701145   -5.34773 N.am        1 UNL1     -0.2772
     10 C         -2.209564   -7.516495   -4.034322 C.2        1 UNL1     0.1049
     11 C         -1.762803   -6.314558   -3.718137 C.2        1 UNL1     0.0801
     12 C         -2.989931   -7.88622   -1.686628 C.ar        1 UNL1     0.0753
     13 C         -2.681139   -6.508764   -1.450256 C.ar        1 UNL1     0.0305
     14 C         -1.934515   -5.714159   -2.422987 C.2        1 UNL1     0.0924
     15 N         -1.405565   -5.289639   -4.510886 N.pl3        1 UNL1     -0.3170
     16 C         -0.826649   -4.270084   -3.67685 C.3        1 UNL1     0.1275
     17 N         -1.478774   -4.468112   -2.330283 N.2        1 UNL1     -0.2557
     18 C         0.646233   -4.621284   -3.489828 C.3        1 UNL1     0.0016
     19 C         1.292404   -4.753537   -4.859705 C.3        1 UNL1     0.0026
     20 N         1.140839   -3.492377   -5.572118 N.3        1 UNL1     -0.3018
     21 C         -0.240637   -3.039343   -5.747195 C.3        1 UNL1     0.0026
     22 C         -0.868993   -2.908873   -4.358656 C.3        1 UNL1     0.0016
     23 C         1.972635   -3.410041   -6.75617 C.3        1 UNL1     0.0012
     24 C         1.104057   -3.26306   -8.015426 C.3        1 UNL1     -0.0339
     25 C         0.642533   -4.631486   -8.543121 C.3        1 UNL1     -0.0615
     26 C         -0.073807   -2.347154   -7.731644 C.3        1 UNL1     -0.0615
     27 C         -3.594702   -8.668892   -0.705917 C.ar        1 UNL1     0.1347
     28 C         -3.900388   -8.197676   0.558425 C.ar        1 UNL1     0.0342
     29 C         -3.632169   -6.825896   0.751927 C.ar        1 UNL1     0.1435
     30 C         -3.059835   -6.020462   -0.23343 C.ar        1 UNL1     0.0774
     31 O         -3.772267   -6.244429   1.963238 O.3        1 UNL1     -0.4436
     32 C         -2.985969   -5.046002   1.883354 C.3        1 UNL1     0.3143
     33 C         -2.893031   -4.731052   0.404036 C.2        1 UNL1     0.2504
     34 C         -4.314341   -9.036112   1.735612 C.3        1 UNL1     -0.0327
     35 O         -3.74979   -3.994377   2.486606 O.2        1 UNL1     -0.4528
     36 C         -1.216393   -1.571854   3.943098 C.3        1 UNL1     0.0854
     37 C         -0.044893   -0.801572   3.220757 C.3        1 UNL1     0.0236
     38 C         -0.067592   0.791121   3.406658 C.3        1 UNL1     0.1131
     39 C         -1.395682   1.597427   3.109477 C.3        1 UNL1     0.0200
     40 C         -2.309567   1.251413   1.757617 C.3        1 UNL1     0.0661
     41 C         -1.724533   1.113659   0.17131 C.3        1 UNL1     0.0091
     42 C         -2.290163   0.057815   -1.218172 C.3        1 UNL1     0.0661
     43 C         -2.563516   -8.477612   -2.979178 C.2        1 UNL1     0.2131
     44 O         -2.405365   -9.672383   -3.153097 O.2        1 UNL1     -0.2851
     45 O         -3.903161   -9.987837   -1.032527 O.3        1 UNL1     -0.5056
     46 O         -2.738511   -3.655036   -0.129038 O.2        1 UNL1     -0.2836
     47 C         -4.816634   -0.146348   -2.050683 C.3        1 UNL1     -0.0566
     48 O         -2.287689   1.161987   -2.208078 O.3        1 UNL1     -0.3909
     49 C         -0.215896   1.015407   0.214377 C.3        1 UNL1     -0.0577
     50 O         -3.227496   0.210728   2.026141 O.3        1 UNL1     -0.3910
     51 O         -2.225912   -0.766996   4.509231 O.3        1 UNL1     -0.3753
     52 C         0.344496   -1.474626   1.864172 C.3        1 UNL1     -0.0564
     53 O         1.21989   1.459144   3.021349 O.3        1 UNL1     -0.4608
     54 C         2.469787   0.913267   3.154406 C.2        1 UNL1     0.3042
     55 O         2.807129   -0.246461   2.919738 O.2        1 UNL1     -0.2512
     56 C         3.515226   1.902283   3.585241 C.3        1 UNL1     0.0332
     57 C         -2.163872   1.790431   4.499013 C.3        1 UNL1     -0.0567
     58 C         -1.576858   -5.411791   2.405021 C.3        1 UNL1     0.0210
     59 C         -1.771704   0.473799   5.047737 C.3        1 UNL1     0.0372
     60 C         -1.901735   -2.597762   3.110644 C.2        1 UNL1     -0.0208
     61 C         -3.200587   -2.856675   2.953507 C.2        1 UNL1     0.0882
     62 H         -3.565105   -1.682023   -1.238465 H        1 UNL1     0.0365
     63 H         -3.995609   -3.273451   -2.443559 H        1 UNL1     0.0576
     64 H         -3.826843   -2.493108   -5.420026 H        1 UNL1     0.0615
     65 H         -4.334438   -5.206704   -3.958314 H        1 UNL1     0.0622
     66 H         -0.723902   -2.12351   4.756224 H        1 UNL1     0.0645
     67 H         0.853971   -1.077264   3.799201 H        1 UNL1     0.0362
     68 H         0.072412   0.85109   4.496761 H        1 UNL1     0.0741
     69 H         -1.145095   2.640006   2.965799 H        1 UNL1     0.0359
     70 H         -2.933014   2.164708   1.710032 H        1 UNL1     0.0600
     71 H         -1.864294   2.155683   -0.177418 H        1 UNL1     0.0348
     72 H         -3.129521   0.101104   -0.509003 H        1 UNL1     0.0602
     73 H         -1.176156   -3.252401   2.695636 H        1 UNL1     0.0628
     74 H         -4.00513   -2.205569   3.297031 H        1 UNL1     0.1022
     75 H         -3.713085   -4.863313   -7.983608 H        1 UNL1     0.0279
     76 H         -2.843987   -6.332525   -7.785159 H        1 UNL1     0.0279
     77 H         -4.642807   -6.304335   -7.982007 H        1 UNL1     0.0279
     78 H         -1.925198   -7.171988   -5.924523 H        1 UNL1     0.1553
     79 H         -1.178788   -5.390326   -5.483186 H        1 UNL1     0.1484
     80 H         1.127958   -3.836765   -2.893811 H        1 UNL1     0.0317
     81 H         0.757605   -5.554789   -2.927852 H        1 UNL1     0.0317
     82 H         0.861852   -5.586897   -5.434205 H        1 UNL1     0.0428
     83 H         2.341597   -5.005945   -4.703073 H        1 UNL1     0.0428
     84 H         -0.322919   -2.052705   -6.213657 H        1 UNL1     0.0428
     85 H         -0.805466   -3.700129   -6.419242 H        1 UNL1     0.0428
     86 H         -1.828009   -2.451365   -4.516653 H        1 UNL1     0.0317
     87 H         -0.324671   -2.160454   -3.769861 H        1 UNL1     0.0317
     88 H         2.609411   -2.520377   -6.665029 H        1 UNL1     0.0429
     89 H         2.640942   -4.277169   -6.835092 H        1 UNL1     0.0429
     90 H         1.688295   -2.765717   -8.798707 H        1 UNL1     0.0308
     91 H         1.058047   -5.448759   -7.946031 H        1 UNL1     0.0233
     92 H         -0.447784   -4.700524   -8.53604 H        1 UNL1     0.0233
     93 H         0.953221   -4.805497   -9.580439 H        1 UNL1     0.0233
     94 H         0.00869   -1.430642   -8.325812 H        1 UNL1     0.0233
     95 H         -1.008328   -2.844184   -8.006591 H        1 UNL1     0.0233
     96 H         -0.118749   -2.070773   -6.674496 H        1 UNL1     0.0233
     97 H         -3.498854   -9.184223   2.437235 H        1 UNL1     0.0280
     98 H         -5.124925   -8.570105   2.310978 H        1 UNL1     0.0280
     99 H         -4.651608   -10.024923   1.384045 H        1 UNL1     0.0280
     100 H         -3.386245   -10.633505   -0.583602 H        1 UNL1     0.2922
     101 H         -4.594523   0.85585   -2.416634 H        1 UNL1     0.0236
     102 H         -5.275262   -0.128637   -1.062588 H        1 UNL1     0.0236
     103 H         -5.608331   -0.520084   -2.721302 H        1 UNL1     0.0236
     104 H         -2.231341   2.00232   -1.712463 H        1 UNL1     0.2098
     105 H         0.295296   1.627419   -0.524498 H        1 UNL1     0.0234
     106 H         0.222455   1.168676   1.200422 H        1 UNL1     0.0234
     107 H         0.0   0.0   0.0 H        1 UNL1     0.0234
     108 H         -3.960952   0.298847   1.387357 H        1 UNL1     0.2098
     109 H         -0.442849   -2.144353   1.49099 H        1 UNL1     0.0234
     110 H         0.609884   -0.751472   1.08548 H        1 UNL1     0.0234
     111 H         1.242421   -2.098725   1.965054 H        1 UNL1     0.0234
     112 H         3.329421   2.214314   4.617451 H        1 UNL1     0.0342
     113 H         4.523801   1.507593   3.471921 H        1 UNL1     0.0342
     114 H         3.431595   2.790921   2.944544 H        1 UNL1     0.0342
     115 H         -1.952408   0.971076   5.199818 H        1 UNL1     0.0234
     116 H         -1.930407   2.727173   5.00897 H        1 UNL1     0.0234
     117 H         -3.26128   1.71599   4.409026 H        1 UNL1     0.0234
     118 H         -1.616315   -6.159769   3.216179 H        1 UNL1     0.0309
     119 H         -0.907446   -5.772393   1.617584 H        1 UNL1     0.0309
     120 H         -1.06702   -4.561164   2.870428 H        1 UNL1     0.0309
     121 H         -2.616544   0.944167   5.550089 H        1 UNL1     0.0524
     122 H         -0.973895   0.337771   5.79676 H        1 UNL1     0.0524
     123 H         -1.403279   1.116105   4.252879 H        1 UNL1     0.0524
@<TRIPOS>BOND
     1     1     2    1
     2     1    42    1
     3     2     3    2
     4     3     4    1
     5     4     5    2
     6     5     7    1
     7     6    75    1
     8     6    76    1
     9     6    77    1
    10     7     9   am
    11     9    10    1
    12    10    11    2
    13    10    43    1
    14    11    14    1
    15    11    15    1
    16    12    13   ar
    17    12    27   ar
    18    12    43    1
    19    13    14    1
    20    13    30   ar
    21    14    17    2
    22    15    16    1
    23    16    17    1
    24    16    18    1
    25    16    22    1
    26    18    19    1
    27    19    20    1
    28    20    21    1
    29    21    22    1
    30    23    24    1
    31    23    88    1
    32    23    89    1
    33    24    25    1
    34    24    26    1
    35    24    90    1
    36    25    91    1
    37    25    92    1
    38    25    93    1
    39    26    94    1
    40    26    95    1
    41    26    96    1
    42    27    28   ar
    43    28    29   ar
    44    29    30   ar
    45    29    31    1
    46    30    33    1
    47    31    32    1
    48    32    33    1
    49    32    35    1
    50    34    97    1
    51    34    98    1
    52    34    99    1
    53    35    61    1
    54    36    37    1
    55    36    60    1
    56    37    38    1
    57    38    39    1
    58    39    40    1
    59    40    41    1
    60    41    42    1
    61    45   100    1
    62    47   101    1
    63    47   102    1
    64    47   103    1
    65    48   104    1
    66    49   105    1
    67    49   106    1
    68    49   107    1
    69    50   108    1
    70    51    59    1
    71    52   109    1
    72    52   110    1
    73    52   111    1
    74    53    54    1
    75    54    55    2
    76    54    56    1
    77    56   112    1
    78    56   113    1
    79    56   114    1
    80    57   115    1
    81    57   116    1
    82    57   117    1
    83    58   118    1
    84    58   119    1
    85    58   120    1
    86    59   121    1
    87    59   122    1
    88    59   123    1
    89    60    61    2
    90     1    47    1
    91     1    62    1
    92     2    63    1
    93     3    64    1
    94     4    65    1
    95     5     6    1
    96     7     8    2
    97     9    78    1
    98    15    79    1
    99    18    80    1
   100    18    81    1
   101    19    82    1
   102    19    83    1
   103    20    23    1
   104    21    84    1
   105    21    85    1
   106    22    86    1
   107    22    87    1
   108    27    45    1
   109    28    34    1
   110    32    58    1
   111    33    46    2
   112    36    51    1
   113    36    66    1
   114    37    52    1
   115    37    67    1
   116    38    53    1
   117    38    68    1
   118    42    48    1
   119    42    72    1
   120    43    44    2
   121    60    73    1
   122    61    74    1
   123    39    69    1
   124    39    57    1
   125    40    70    1
   126    40    50    1
   127    41    71    1
   128    41    49    1
