@<TRIPOS>MOLECULE
*****
 123 128 0 0 0
SMALL
GASTEIGER

@<TRIPOS>ATOM
     1 C         4.926255   2.316555   0.614255 C.3        1 UNL1     0.0009
     2 C         6.311087   3.221587   -0.222521 C.2        1 UNL1     -0.0787
     3 C         7.632153   3.225521   -0.814819 C.2        1 UNL1     -0.0649
     4 C         8.409016   4.497949   -1.617169 C.2        1 UNL1     -0.0542
     5 C         9.44259   4.840137   -2.523652 C.2        1 UNL1     0.0115
     6 C         10.681279   4.290052   -3.282849 C.3        1 UNL1     -0.0348
     7 C         9.407337   6.278854   -3.234876 C.2        1 UNL1     0.2441
     8 O         10.111699   7.213995   -2.880036 O.2        1 UNL1     -0.2702
     9 N         8.707471   6.316478   -4.45345 N.am        1 UNL1     -0.2772
     10 C         7.373804   6.573916   -4.233497 C.2        1 UNL1     0.1049
     11 C         6.625769   5.534292   -3.911241 C.2        1 UNL1     0.0801
     12 C         5.825841   8.114559   -3.013839 C.ar        1 UNL1     0.0753
     13 C         5.172278   6.940613   -2.520571 C.ar        1 UNL1     0.0305
     14 C         5.470536   5.615421   -3.05905 C.2        1 UNL1     0.0924
     15 N         6.904239   4.220418   -3.963366 N.pl3        1 UNL1     -0.3170
     16 C         5.692828   3.502443   -3.667985 C.3        1 UNL1     0.1275
     17 N         4.898847   4.443812   -2.795551 N.2        1 UNL1     -0.2557
     18 C         4.912931   3.375258   -4.973085 C.3        1 UNL1     0.0016
     19 C         5.802905   2.705886   -6.008207 C.3        1 UNL1     0.0026
     20 N         6.201795   1.398095   -5.506612 N.3        1 UNL1     -0.3018
     21 C         6.905564   1.412895   -4.222533 C.3        1 UNL1     0.0026
     22 C         5.991638   2.085364   -3.196658 C.3        1 UNL1     0.0016
     23 C         6.797793   0.560126   -6.528002 C.3        1 UNL1     0.0012
     24 C         5.735732   0.111925   -7.544318 C.3        1 UNL1     -0.0339
     25 C         6.024831   -1.302648   -8.072959 C.3        1 UNL1     -0.0615
     26 C         4.351413   0.205737   -6.926548 C.3        1 UNL1     -0.0615
     27 C         5.450861   9.384664   -2.582167 C.ar        1 UNL1     0.1347
     28 C         4.414085   9.608075   -1.693779 C.ar        1 UNL1     0.0342
     29 C         3.817546   8.435164   -1.184285 C.ar        1 UNL1     0.1435
     30 C         4.206816   7.154925   -1.58011 C.ar        1 UNL1     0.0774
     31 O         2.722948   8.487198   -0.394251 O.3        1 UNL1     -0.4436
     32 C         2.152098   7.172697   -0.478464 C.3        1 UNL1     0.3143
     33 C         3.29842   6.268196   -0.883478 C.2        1 UNL1     0.2504
     34 C         3.7936   10.940989   -1.380031 C.3        1 UNL1     -0.0327
     35 O         1.76698   6.789785   0.847551 O.2        1 UNL1     -0.4528
     36 C         -1.213052   4.474659   0.438057 C.3        1 UNL1     0.0854
     37 C         -1.324212   3.128139   -0.375608 C.3        1 UNL1     0.0236
     38 C         -1.825342   1.864117   0.474605 C.3        1 UNL1     0.1131
     39 C         -1.121279   1.511725   1.846606 C.3        1 UNL1     0.0200
     40 C         0.540652   1.561377   1.98062 C.3        1 UNL1     0.0661
     41 C         1.645229   0.82875   0.921952 C.3        1 UNL1     0.0091
     42 C         3.331605   1.345254   0.417213 C.3        1 UNL1     0.0661
     43 C         6.856068   7.940223   -4.067642 C.2        1 UNL1     0.2131
     44 O         7.194428   8.826303   -4.83126 O.2        1 UNL1     -0.2851
     45 O         6.168159   10.471992   -3.076779 O.3        1 UNL1     -0.5056
     46 O         3.440457   5.086475   -0.661636 O.2        1 UNL1     -0.2836
     47 C         5.284362   2.036319   2.098576 C.3        1 UNL1     -0.0566
     48 O         3.928699   0.004186   0.627287 O.3        1 UNL1     -0.3909
     49 C         0.914872   0.416321   -0.336609 C.3        1 UNL1     -0.0577
     50 O         0.978204   2.864474   2.30957 O.3        1 UNL1     -0.3910
     51 O         -1.39525   4.368964   1.831995 O.3        1 UNL1     -0.3753
     52 C         -0.203746   3.009266   -1.459755 C.3        1 UNL1     -0.0564
     53 O         -2.255944   0.702825   -0.372926 O.3        1 UNL1     -0.4608
     54 C         -2.045044   -0.618589   -0.077432 C.2        1 UNL1     0.3042
     55 O         -1.21543   -1.373721   -0.582758 O.2        1 UNL1     -0.2512
     56 C         -2.915669   -1.132777   1.033574 C.3        1 UNL1     0.0332
     57 C         -1.983617   2.17925   3.016631 C.3        1 UNL1     -0.0567
     58 C         1.120582   7.216715   -1.629796 C.3        1 UNL1     0.0210
     59 C         -2.626371   4.902157   2.317702 C.3        1 UNL1     0.0372
     60 C         0.048894   5.234863   0.226533 C.2        1 UNL1     -0.0208
     61 C         0.856218   5.831449   1.104632 C.2        1 UNL1     0.0882
     62 H         4.339714   3.243141   0.603404 H        1 UNL1     0.0365
     63 H         5.923796   4.242531   -0.21031 H        1 UNL1     0.0576
     64 H         8.206354   2.304718   -0.939411 H        1 UNL1     0.0615
     65 H         7.80409   5.373107   -1.364888 H        1 UNL1     0.0622
     66 H         -2.016913   5.107275   0.035998 H        1 UNL1     0.0645
     67 H         -2.182112   3.292762   -1.050491 H        1 UNL1     0.0362
     68 H         -2.833763   2.212539   0.745182 H        1 UNL1     0.0741
     69 H         -1.349125   0.485223   2.101141 H        1 UNL1     0.0359
     70 H         0.674146   0.981021   2.913587 H        1 UNL1     0.0600
     71 H         1.77732   -0.148531   1.426364 H        1 UNL1     0.0348
     72 H         3.115887   1.884835   1.350827 H        1 UNL1     0.0602
     73 H         0.203658   5.371962   -0.814861 H        1 UNL1     0.0628
     74 H         0.800588   5.694905   2.18514 H        1 UNL1     0.1022
     75 H         11.341784   3.714546   -2.590346 H        1 UNL1     0.0279
     76 H         10.48511   3.568728   -4.072961 H        1 UNL1     0.0279
     77 H         11.361515   5.085927   -3.619839 H        1 UNL1     0.0279
     78 H         8.772832   5.410867   -4.913531 H        1 UNL1     0.1553
     79 H         7.647389   3.829963   -4.513099 H        1 UNL1     0.1484
     80 H         4.002562   2.791708   -4.790153 H        1 UNL1     0.0317
     81 H         4.588539   4.357758   -5.332409 H        1 UNL1     0.0317
     82 H         6.681513   3.322181   -6.249329 H        1 UNL1     0.0428
     83 H         5.227906   2.626772   -6.931336 H        1 UNL1     0.0428
     84 H         7.122993   0.414679   -3.829977 H        1 UNL1     0.0428
     85 H         7.892654   1.888836   -4.302845 H        1 UNL1     0.0428
     86 H         6.479509   1.95966   -2.247886 H        1 UNL1     0.0317
     87 H         5.065748   1.508112   -3.084389 H        1 UNL1     0.0317
     88 H         7.557782   1.151963   -7.054728 H        1 UNL1     0.0429
     89 H         7.311842   -0.302986   -6.085775 H        1 UNL1     0.0429
     90 H         5.73332   0.807666   -8.391757 H        1 UNL1     0.0308
     91 H         6.927781   -1.319592   -8.690613 H        1 UNL1     0.0233
     92 H         6.142416   -2.007374   -7.246434 H        1 UNL1     0.0233
     93 H         5.20805   -1.69186   -8.692813 H        1 UNL1     0.0233
     94 H         3.682038   -0.529393   -7.386283 H        1 UNL1     0.0233
     95 H         4.404695   -0.0101   -5.855783 H        1 UNL1     0.0233
     96 H         3.919245   1.20074   -7.064995 H        1 UNL1     0.0233
     97 H         2.729761   10.956476   -1.597371 H        1 UNL1     0.0280
     98 H         3.887097   11.201177   -0.317574 H        1 UNL1     0.0280
     99 H         4.280702   11.725631   -1.981831 H        1 UNL1     0.0280
     100 H         7.103272   10.382371   -3.020619 H        1 UNL1     0.2922
     101 H         4.734876   2.720471   2.744841 H        1 UNL1     0.0236
     102 H         6.356033   2.061776   2.293142 H        1 UNL1     0.0236
     103 H         4.964377   1.030789   2.419064 H        1 UNL1     0.0236
     104 H         3.517191   -0.38007   1.426023 H        1 UNL1     0.2098
     105 H         0.67932   1.237625   -1.00876 H        1 UNL1     0.0234
     106 H         1.381685   -0.400356   -0.887111 H        1 UNL1     0.0234
     107 H         0.0   -0.0   0.0 H        1 UNL1     0.0234
     108 H         0.474587   3.149656   3.096215 H        1 UNL1     0.2098
     109 H         -0.253932   3.81958   -2.200419 H        1 UNL1     0.0234
     110 H         0.804323   2.964181   -1.033718 H        1 UNL1     0.0234
     111 H         -0.29246   2.076763   -2.032916 H        1 UNL1     0.0234
     112 H         -2.683267   -2.183343   1.232686 H        1 UNL1     0.0342
     113 H         -2.821919   -0.533664   1.938073 H        1 UNL1     0.0342
     114 H         -3.96215   -1.076023   0.703694 H        1 UNL1     0.0342
     115 H         -2.48072   1.423191   3.639889 H        1 UNL1     0.0234
     116 H         -1.40572   2.82442   3.681341 H        1 UNL1     0.0234
     117 H         -2.849936   2.756447   2.650192 H        1 UNL1     0.0234
     118 H         0.082959   7.142539   -1.259875 H        1 UNL1     0.0309
     119 H         1.214358   8.109081   -2.256767 H        1 UNL1     0.0309
     120 H         1.209274   6.359897   -2.306629 H        1 UNL1     0.0309
     121 H         -2.473912   5.188946   3.357829 H        1 UNL1     0.0524
     122 H         -2.937597   5.805164   1.766563 H        1 UNL1     0.0524
     123 H         -3.413188   4.156597   2.24592 H        1 UNL1     0.0524
@<TRIPOS>BOND
     1     1     2    1
     2     1    42    1
     3     2     3    2
     4     3     4    1
     5     4     5    2
     6     5     7    1
     7     6    75    1
     8     6    76    1
     9     6    77    1
    10     7     9   am
    11     9    10    1
    12    10    11    2
    13    10    43    1
    14    11    14    1
    15    11    15    1
    16    12    13   ar
    17    12    27   ar
    18    12    43    1
    19    13    14    1
    20    13    30   ar
    21    14    17    2
    22    15    16    1
    23    16    17    1
    24    16    18    1
    25    16    22    1
    26    18    19    1
    27    19    20    1
    28    20    21    1
    29    21    22    1
    30    23    24    1
    31    23    88    1
    32    23    89    1
    33    24    25    1
    34    24    26    1
    35    24    90    1
    36    25    91    1
    37    25    92    1
    38    25    93    1
    39    26    94    1
    40    26    95    1
    41    26    96    1
    42    27    28   ar
    43    28    29   ar
    44    29    30   ar
    45    29    31    1
    46    30    33    1
    47    31    32    1
    48    32    33    1
    49    32    35    1
    50    34    97    1
    51    34    98    1
    52    34    99    1
    53    35    61    1
    54    36    37    1
    55    36    60    1
    56    37    38    1
    57    38    39    1
    58    39    40    1
    59    40    41    1
    60    41    42    1
    61    45   100    1
    62    47   101    1
    63    47   102    1
    64    47   103    1
    65    48   104    1
    66    49   105    1
    67    49   106    1
    68    49   107    1
    69    50   108    1
    70    51    59    1
    71    52   109    1
    72    52   110    1
    73    52   111    1
    74    53    54    1
    75    54    55    2
    76    54    56    1
    77    56   112    1
    78    56   113    1
    79    56   114    1
    80    57   115    1
    81    57   116    1
    82    57   117    1
    83    58   118    1
    84    58   119    1
    85    58   120    1
    86    59   121    1
    87    59   122    1
    88    59   123    1
    89    60    61    2
    90     1    47    1
    91     1    62    1
    92     2    63    1
    93     3    64    1
    94     4    65    1
    95     5     6    1
    96     7     8    2
    97     9    78    1
    98    15    79    1
    99    18    80    1
   100    18    81    1
   101    19    82    1
   102    19    83    1
   103    20    23    1
   104    21    84    1
   105    21    85    1
   106    22    86    1
   107    22    87    1
   108    27    45    1
   109    28    34    1
   110    32    58    1
   111    33    46    2
   112    36    51    1
   113    36    66    1
   114    37    52    1
   115    37    67    1
   116    38    53    1
   117    38    68    1
   118    42    48    1
   119    42    72    1
   120    43    44    2
   121    60    73    1
   122    61    74    1
   123    39    69    1
   124    39    57    1
   125    40    70    1
   126    40    50    1
   127    41    71    1
   128    41    49    1
