@<TRIPOS>MOLECULE
*****
 123 128 0 0 0
SMALL
GASTEIGER

@<TRIPOS>ATOM
     1 C         3.698624   1.709752   -1.144451 C.3        1 UNL1     0.0009
     2 C         3.989284   3.386516   -1.87999 C.2        1 UNL1     -0.0787
     3 C         4.293836   4.221004   -3.023198 C.2        1 UNL1     -0.0649
     4 C         4.313709   5.912118   -3.101274 C.2        1 UNL1     -0.0542
     5 C         4.253776   7.035414   -3.962489 C.2        1 UNL1     0.0115
     6 C         4.289552   7.481649   -5.450076 C.3        1 UNL1     -0.0348
     7 C         3.896318   8.47204   -3.341746 C.2        1 UNL1     0.2441
     8 O         4.739504   9.331046   -3.123406 O.2        1 UNL1     -0.2702
     9 N         2.523899   8.774627   -3.30921 N.am        1 UNL1     -0.2772
     10 C         1.957617   8.311776   -2.143699 C.2        1 UNL1     0.1049
     11 C         1.61017   7.037668   -2.131348 C.2        1 UNL1     0.0801
     12 C         2.263483   8.292241   0.33892 C.ar        1 UNL1     0.0753
     13 C         2.08597   6.873623   0.270952 C.ar        1 UNL1     0.0305
     14 C         1.622803   6.218089   -0.950032 C.2        1 UNL1     0.0924
     15 N         1.523578   6.156084   -3.142208 N.pl3        1 UNL1     -0.3170
     16 C         0.934152   4.950067   -2.624181 C.3        1 UNL1     0.1275
     17 N         1.311121   4.942745   -1.162824 N.2        1 UNL1     -0.2557
     18 C         -0.58007   5.130985   -2.670015 C.3        1 UNL1     0.0016
     19 C         -0.986859   5.466226   -4.096102 C.3        1 UNL1     0.0026
     20 N         -0.561988   4.382099   -4.970849 N.3        1 UNL1     -0.3018
     21 C         0.873075   4.091458   -4.948729 C.3        1 UNL1     0.0026
     22 C         1.258967   3.752863   -3.507779 C.3        1 UNL1     0.0016
     23 C         -1.156959   4.456053   -6.290389 C.3        1 UNL1     0.0012
     24 C         -2.658103   4.133862   -6.223198 C.3        1 UNL1     -0.0339
     25 C         -3.252612   4.506704   -4.855132 C.3        1 UNL1     -0.0615
     26 C         -3.390839   4.826959   -7.358758 C.3        1 UNL1     -0.0615
     27 C         2.58808   8.922372   1.537957 C.ar        1 UNL1     0.1347
     28 C         2.721487   8.246525   2.737742 C.ar        1 UNL1     0.0342
     29 C         2.59046   6.845135   2.63724 C.ar        1 UNL1     0.1435
     30 C         2.301111   6.196425   1.436127 C.ar        1 UNL1     0.0774
     31 O         2.584645   6.057352   3.734679 O.3        1 UNL1     -0.4436
     32 C         1.974548   4.83307   3.299034 C.3        1 UNL1     0.3143
     33 C         2.181327   4.799543   1.798257 C.2        1 UNL1     0.2504
     34 C         2.818437   8.877246   4.098951 C.3        1 UNL1     -0.0327
     35 O         2.741473   3.755341   3.850013 O.2        1 UNL1     -0.4528
     36 C         0.301833   0.890383   4.348272 C.3        1 UNL1     0.0854
     37 C         -0.623359   0.174253   3.290585 C.3        1 UNL1     0.0236
     38 C         -0.442223   -1.416658   3.201491 C.3        1 UNL1     0.1131
     39 C         1.00461   -2.034019   3.034732 C.3        1 UNL1     0.0200
     40 C         2.093261   -1.358905   1.966323 C.3        1 UNL1     0.0661
     41 C         1.783542   -0.971701   0.344054 C.3        1 UNL1     0.0091
     42 C         2.453132   0.374705   -0.706775 C.3        1 UNL1     0.0661
     43 C         2.002608   9.080592   -0.891002 C.2        1 UNL1     0.2131
     44 O         1.734888   10.268458   -0.884918 O.2        1 UNL1     -0.2851
     45 O         2.788149   10.300978   1.508679 O.3        1 UNL1     -0.5056
     46 O         2.25337   3.835867   1.068879 O.2        1 UNL1     -0.2836
     47 C         5.04332   0.95077   -0.98407 C.3        1 UNL1     -0.0566
     48 O         2.757324   -0.516193   -1.852586 O.3        1 UNL1     -0.3909
     49 C         0.290084   -1.013715   0.108868 C.3        1 UNL1     -0.0577
     50 O         2.817833   -0.313552   2.582729 O.3        1 UNL1     -0.3910
     51 O         1.28566   0.082186   4.953527 O.3        1 UNL1     -0.3753
     52 C         -0.846638   1.057868   2.020027 C.3        1 UNL1     -0.0564
     53 O         -1.552209   -2.107129   2.464261 O.3        1 UNL1     -0.4608
     54 C         -2.058155   -3.34438   2.766183 C.2        1 UNL1     0.3042
     55 O         -3.213874   -3.621262   3.084757 O.2        1 UNL1     -0.2512
     56 C         -1.057198   -4.455152   2.621318 C.3        1 UNL1     0.0332
     57 C         1.534481   -2.421914   4.493138 C.3        1 UNL1     -0.0567
     58 C         0.462133   4.969849   3.591305 C.3        1 UNL1     0.0210
     59 C         1.034368   -0.246629   6.31903 C.3        1 UNL1     0.0372
     60 C         0.994205   2.111471   3.853574 C.2        1 UNL1     -0.0208
     61 C         2.259744   2.50645   3.998997 C.2        1 UNL1     0.0882
     62 H         3.493138   2.189581   -0.179956 H        1 UNL1     0.0365
     63 H         3.933899   4.012858   -0.987186 H        1 UNL1     0.0576
     64 H         4.385404   3.803577   -4.028423 H        1 UNL1     0.0615
     65 H         4.298328   6.221609   -2.052722 H        1 UNL1     0.0622
     66 H         -0.388485   1.232164   5.132294 H        1 UNL1     0.0645
     67 H         -1.636345   0.256016   3.721554 H        1 UNL1     0.0362
     68 H         -0.763178   -1.695477   4.216759 H        1 UNL1     0.0741
     69 H         0.910404   -3.047616   2.668459 H        1 UNL1     0.0359
     70 H         2.820646   -2.189195   1.885132 H        1 UNL1     0.0600
     71 H         2.106672   -1.912004   -0.144183 H        1 UNL1     0.0348
     72 H         3.153972   0.269231   0.134066 H        1 UNL1     0.0602
     73 H         0.279355   2.76837   3.423781 H        1 UNL1     0.0628
     74 H         3.063874   1.873452   4.375727 H        1 UNL1     0.1022
     75 H         4.320043   6.592778   -6.125362 H        1 UNL1     0.0279
     76 H         3.419896   8.023432   -5.815097 H        1 UNL1     0.0279
     77 H         5.226821   7.990475   -5.719006 H        1 UNL1     0.0279
     78 H         2.053042   8.311318   -4.083623 H        1 UNL1     0.1553
     79 H         1.460576   6.420654   -4.10811 H        1 UNL1     0.1484
     80 H         -1.06102   4.208601   -2.322649 H        1 UNL1     0.0317
     81 H         -0.899844   5.926904   -1.988907 H        1 UNL1     0.0317
     82 H         -0.565563   6.427853   -4.424273 H        1 UNL1     0.0428
     83 H         -2.069879   5.592815   -4.105761 H        1 UNL1     0.0428
     84 H         1.15405   3.222843   -5.552362 H        1 UNL1     0.0428
     85 H         1.463457   4.914522   -5.37456 H        1 UNL1     0.0428
     86 H         2.278787   3.41822   -3.552152 H        1 UNL1     0.0317
     87 H         0.71378   2.861771   -3.173383 H        1 UNL1     0.0317
     88 H         -1.03598   5.481787   -6.662583 H        1 UNL1     0.0429
     89 H         -0.641196   3.794227   -6.998026 H        1 UNL1     0.0429
     90 H         -2.802411   3.059124   -6.385448 H        1 UNL1     0.0308
     91 H         -2.824635   3.89485   -4.055399 H        1 UNL1     0.0233
     92 H         -3.077319   5.561813   -4.632358 H        1 UNL1     0.0233
     93 H         -4.33928   4.362942   -4.818814 H        1 UNL1     0.0233
     94 H         -4.326662   4.302512   -7.580177 H        1 UNL1     0.0233
     95 H         -3.638924   5.8528   -7.072285 H        1 UNL1     0.0233
     96 H         -2.784724   4.851341   -8.268702 H        1 UNL1     0.0233
     97 H         2.024553   8.543171   4.760293 H        1 UNL1     0.0280
     98 H         3.75859   8.624258   4.606262 H        1 UNL1     0.0280
     99 H         2.750379   9.97331   4.003518 H        1 UNL1     0.0280
     100 H         3.366758   10.598277   0.828644 H        1 UNL1     0.2922
     101 H         4.929283   0.151361   -0.252225 H        1 UNL1     0.0236
     102 H         5.88005   1.606729   -0.746197 H        1 UNL1     0.0236
     103 H         5.343191   0.438586   -1.913553 H        1 UNL1     0.0236
     104 H         3.649557   -0.887845   -1.708483 H        1 UNL1     0.2098
     105 H         -0.007905   -1.543679   -0.792327 H        1 UNL1     0.0234
     106 H         -0.295562   -1.358485   0.960971 H        1 UNL1     0.0234
     107 H         -0.0   0.0   0.0 H        1 UNL1     0.0234
     108 H         2.954775   0.380671   1.909625 H        1 UNL1     0.2098
     109 H         -1.335928   2.012661   2.258099 H        1 UNL1     0.0234
     110 H         0.075654   1.248237   1.460669 H        1 UNL1     0.0234
     111 H         -1.501925   0.561501   1.291902 H        1 UNL1     0.0234
     112 H         -1.129991   -5.135436   3.475285 H        1 UNL1     0.0342
     113 H         -1.175572   -4.99319   1.681985 H        1 UNL1     0.0342
     114 H         -0.051212   -4.013429   2.627424 H        1 UNL1     0.0342
     115 H         0.847721   -2.082588   5.280797 H        1 UNL1     0.0234
     116 H         1.695735   -3.492156   4.636766 H        1 UNL1     0.0234
     117 H         2.462113   -1.89645   4.77832 H        1 UNL1     0.0234
     118 H         0.135941   4.303446   4.408931 H        1 UNL1     0.0309
     119 H         0.160581   5.996107   3.823821 H        1 UNL1     0.0309
     120 H         -0.159504   4.655302   2.745886 H        1 UNL1     0.0309
     121 H         1.995836   -0.440247   6.793845 H        1 UNL1     0.0524
     122 H         0.554144   0.581032   6.867116 H        1 UNL1     0.0524
     123 H         0.400645   -1.12661   6.383237 H        1 UNL1     0.0524
@<TRIPOS>BOND
     1     1     2    1
     2     1    42    1
     3     2     3    2
     4     3     4    1
     5     4     5    2
     6     5     7    1
     7     6    75    1
     8     6    76    1
     9     6    77    1
    10     7     9   am
    11     9    10    1
    12    10    11    2
    13    10    43    1
    14    11    14    1
    15    11    15    1
    16    12    13   ar
    17    12    27   ar
    18    12    43    1
    19    13    14    1
    20    13    30   ar
    21    14    17    2
    22    15    16    1
    23    16    17    1
    24    16    18    1
    25    16    22    1
    26    18    19    1
    27    19    20    1
    28    20    21    1
    29    21    22    1
    30    23    24    1
    31    23    88    1
    32    23    89    1
    33    24    25    1
    34    24    26    1
    35    24    90    1
    36    25    91    1
    37    25    92    1
    38    25    93    1
    39    26    94    1
    40    26    95    1
    41    26    96    1
    42    27    28   ar
    43    28    29   ar
    44    29    30   ar
    45    29    31    1
    46    30    33    1
    47    31    32    1
    48    32    33    1
    49    32    35    1
    50    34    97    1
    51    34    98    1
    52    34    99    1
    53    35    61    1
    54    36    37    1
    55    36    60    1
    56    37    38    1
    57    38    39    1
    58    39    40    1
    59    40    41    1
    60    41    42    1
    61    45   100    1
    62    47   101    1
    63    47   102    1
    64    47   103    1
    65    48   104    1
    66    49   105    1
    67    49   106    1
    68    49   107    1
    69    50   108    1
    70    51    59    1
    71    52   109    1
    72    52   110    1
    73    52   111    1
    74    53    54    1
    75    54    55    2
    76    54    56    1
    77    56   112    1
    78    56   113    1
    79    56   114    1
    80    57   115    1
    81    57   116    1
    82    57   117    1
    83    58   118    1
    84    58   119    1
    85    58   120    1
    86    59   121    1
    87    59   122    1
    88    59   123    1
    89    60    61    2
    90     1    47    1
    91     1    62    1
    92     2    63    1
    93     3    64    1
    94     4    65    1
    95     5     6    1
    96     7     8    2
    97     9    78    1
    98    15    79    1
    99    18    80    1
   100    18    81    1
   101    19    82    1
   102    19    83    1
   103    20    23    1
   104    21    84    1
   105    21    85    1
   106    22    86    1
   107    22    87    1
   108    27    45    1
   109    28    34    1
   110    32    58    1
   111    33    46    2
   112    36    51    1
   113    36    66    1
   114    37    52    1
   115    37    67    1
   116    38    53    1
   117    38    68    1
   118    42    48    1
   119    42    72    1
   120    43    44    2
   121    60    73    1
   122    61    74    1
   123    39    69    1
   124    39    57    1
   125    40    70    1
   126    40    50    1
   127    41    71    1
   128    41    49    1
