@<TRIPOS>MOLECULE
*****
 123 128 0 0 0
SMALL
GASTEIGER

@<TRIPOS>ATOM
     1 C         0.709011   3.065683   4.484489 C.3        1 UNL1     0.0009
     2 C         0.895225   4.784329   5.15428 C.2        1 UNL1     -0.0787
     3 C         1.732055   5.84906   5.666246 C.2        1 UNL1     -0.0649
     4 C         1.278629   7.433037   6.055831 C.2        1 UNL1     -0.0542
     5 C         1.742535   8.754912   6.266824 C.2        1 UNL1     0.0115
     6 C         3.016383   9.626636   6.442127 C.3        1 UNL1     -0.0348
     7 C         0.689807   9.965618   6.212567 C.2        1 UNL1     0.2441
     8 O         0.249081   10.509651   7.215719 O.2        1 UNL1     -0.2702
     9 N         0.507648   10.531066   4.938503 N.am        1 UNL1     -0.2772
     10 C         -0.477279   9.859409   4.251395 C.2        1 UNL1     0.1049
     11 C         -0.105304   8.752275   3.634863 C.2        1 UNL1     0.0801
     12 C         -2.81464   8.996361   4.473263 C.ar        1 UNL1     0.0753
     13 C         -2.314263   7.74417   3.99342 C.ar        1 UNL1     0.0305
     14 C         -0.969843   7.620994   3.43448 C.2        1 UNL1     0.0924
     15 N         1.125894   8.272956   3.388017 N.pl3        1 UNL1     -0.3170
     16 C         0.986682   7.122267   2.535497 C.3        1 UNL1     0.1275
     17 N         -0.382334   6.575658   2.859128 N.2        1 UNL1     -0.2557
     18 C         0.91105   7.63037   1.098899 C.3        1 UNL1     0.0016
     19 C         2.14291   8.475566   0.816492 C.3        1 UNL1     0.0026
     20 N         3.329357   7.655986   1.020605 N.3        1 UNL1     -0.3018
     21 C         3.458502   7.070929   2.356793 C.3        1 UNL1     0.0026
     22 C         2.212721   6.222474   2.617651 C.3        1 UNL1     0.0016
     23 C         4.533951   8.266703   0.494656 C.3        1 UNL1     0.0012
     24 C         4.508777   8.271299   -1.041931 C.3        1 UNL1     -0.0339
     25 C         3.560207   9.352362   -1.585598 C.3        1 UNL1     -0.0615
     26 C         5.917124   8.438714   -1.585355 C.3        1 UNL1     -0.0615
     27 C         -4.136024   9.132806   4.892125 C.ar        1 UNL1     0.1347
     28 C         -5.058003   8.102602   4.840304 C.ar        1 UNL1     0.0342
     29 C         -4.530212   6.86653   4.410508 C.ar        1 UNL1     0.1435
     30 C         -3.199595   6.705959   4.022053 C.ar        1 UNL1     0.0774
     31 O         -5.325846   5.79495   4.201487 O.3        1 UNL1     -0.4436
     32 C         -4.555129   4.931091   3.352595 C.3        1 UNL1     0.3143
     33 C         -3.111804   5.326457   3.590736 C.2        1 UNL1     0.2504
     34 C         -6.542893   8.237777   5.032476 C.3        1 UNL1     -0.0327
     35 O         -4.709613   3.596296   3.850299 O.2        1 UNL1     -0.4528
     36 C         -4.388269   1.316658   0.83234 C.3        1 UNL1     0.0854
     37 C         -3.198998   1.185807   -0.195294 C.3        1 UNL1     0.0236
     38 C         -2.609914   -0.296387   -0.362106 C.3        1 UNL1     0.1131
     39 C         -2.198952   -1.126827   0.919982 C.3        1 UNL1     0.0200
     40 C         -1.350897   -0.401971   2.160073 C.3        1 UNL1     0.0661
     41 C         0.054927   0.53191   1.989385 C.3        1 UNL1     0.0091
     42 C         0.659243   1.962327   2.966171 C.3        1 UNL1     0.0661
     43 C         -1.904478   10.167531   4.42608 C.2        1 UNL1     0.2131
     44 O         -2.29244   11.321747   4.423147 O.2        1 UNL1     -0.2851
     45 O         -4.530676   10.373651   5.3881 O.3        1 UNL1     -0.5056
     46 O         -2.115539   4.648702   3.4726 O.2        1 UNL1     -0.2836
     47 C         0.849527   2.023649   5.626593 C.3        1 UNL1     -0.0566
     48 O         2.037583   1.4325   3.102481 O.3        1 UNL1     -0.3909
     49 C         0.229505   0.888812   0.530057 C.3        1 UNL1     -0.0577
     50 O         -2.232527   0.215032   3.076456 O.3        1 UNL1     -0.3910
     51 O         -4.669504   0.167307   1.598716 O.3        1 UNL1     -0.3753
     52 C         -2.278478   2.449715   -0.18389 C.3        1 UNL1     -0.0564
     53 O         -1.740426   -0.464234   -1.573776 O.3        1 UNL1     -0.4608
     54 C         -0.606833   -1.231476   -1.638867 C.2        1 UNL1     0.3042
     55 O         0.518996   -0.935883   -1.240153 O.2        1 UNL1     -0.2512
     56 C         -0.837332   -2.596749   -2.22163 C.3        1 UNL1     0.0332
     57 C         -3.439946   -2.057386   1.310073 C.3        1 UNL1     -0.0567
     58 C         -4.937774   5.291891   1.898313 C.3        1 UNL1     0.0210
     59 C         -5.873084   -0.51107   1.242254 C.3        1 UNL1     0.0372
     60 C         -4.271651   2.451768   1.787895 C.2        1 UNL1     -0.0208
     61 C         -4.480739   2.498552   3.104268 C.2        1 UNL1     0.0882
     62 H         -0.364742   3.251016   4.360323 H        1 UNL1     0.0365
     63 H         -0.150058   5.09528   5.210518 H        1 UNL1     0.0576
     64 H         2.820257   5.758769   5.694033 H        1 UNL1     0.0615
     65 H         0.18618   7.393501   6.077628 H        1 UNL1     0.0622
     66 H         -5.267663   1.535489   0.210387 H        1 UNL1     0.0645
     67 H         -3.675433   1.344548   -1.178336 H        1 UNL1     0.0362
     68 H         -3.499607   -0.803611   -0.765456 H        1 UNL1     0.0741
     69 H         -1.538567   -1.928848   0.618217 H        1 UNL1     0.0359
     70 H         -0.984366   -1.301061   2.691441 H        1 UNL1     0.0600
     71 H         0.825418   -0.254031   2.114276 H        1 UNL1     0.0348
     72 H         -0.076821   1.449857   3.602488 H        1 UNL1     0.0602
     73 H         -4.098548   3.34817   1.24591 H        1 UNL1     0.0628
     74 H         -4.60726   1.621656   3.7401 H        1 UNL1     0.1022
     75 H         3.714884   9.156949   7.175969 H        1 UNL1     0.0279
     76 H         3.646165   9.74756   5.563593 H        1 UNL1     0.0279
     77 H         2.808085   10.591202   6.927847 H        1 UNL1     0.0279
     78 H         1.36788   10.447163   4.400879 H        1 UNL1     0.1553
     79 H         1.957313   8.834284   3.412236 H        1 UNL1     0.1484
     80 H         0.849675   6.772125   0.418888 H        1 UNL1     0.0317
     81 H         0.002763   8.221554   0.940254 H        1 UNL1     0.0317
     82 H         2.171341   9.376935   1.446283 H        1 UNL1     0.0428
     83 H         2.067748   8.829123   -0.212293 H        1 UNL1     0.0428
     84 H         4.31437   6.396577   2.459513 H        1 UNL1     0.0428
     85 H         3.629898   7.838365   3.124244 H        1 UNL1     0.0428
     86 H         2.401548   5.707109   3.541086 H        1 UNL1     0.0317
     87 H         2.151222   5.411081   1.882154 H        1 UNL1     0.0317
     88 H         4.571716   9.305907   0.846684 H        1 UNL1     0.0429
     89 H         5.433623   7.76559   0.874456 H        1 UNL1     0.0429
     90 H         4.16446   7.293263   -1.39845 H        1 UNL1     0.0308
     91 H         2.773633   8.914973   -2.207766 H        1 UNL1     0.0233
     92 H         3.100769   9.910568   -0.766493 H        1 UNL1     0.0233
     93 H         4.081463   10.092103   -2.205204 H        1 UNL1     0.0233
     94 H         6.352939   7.459913   -1.813061 H        1 UNL1     0.0233
     95 H         5.893758   9.020874   -2.510831 H        1 UNL1     0.0233
     96 H         6.564976   8.946374   -0.865259 H        1 UNL1     0.0233
     97 H         -7.098985   7.892472   4.166014 H        1 UNL1     0.0280
     98 H         -6.90644   7.641974   5.879888 H        1 UNL1     0.0280
     99 H         -6.797574   9.295918   5.20732 H        1 UNL1     0.0280
     100 H         -3.954254   10.737223   6.03708 H        1 UNL1     0.2922
     101 H         -0.132608   1.630767   5.888719 H        1 UNL1     0.0236
     102 H         1.381005   2.409484   6.495872 H        1 UNL1     0.0236
     103 H         1.429557   1.140042   5.311956 H        1 UNL1     0.0236
     104 H         1.970652   0.466274   3.232472 H        1 UNL1     0.2098
     105 H         -0.438781   1.669558   0.175601 H        1 UNL1     0.0234
     106 H         1.255601   1.106767   0.234169 H        1 UNL1     0.0234
     107 H         0.0   0.0   0.0 H        1 UNL1     0.0234
     108 H         -1.697627   0.80632   3.640396 H        1 UNL1     0.2098
     109 H         -2.82295   3.363376   -0.460452 H        1 UNL1     0.0234
     110 H         -1.768967   2.602452   0.773613 H        1 UNL1     0.0234
     111 H         -1.459474   2.360477   -0.909986 H        1 UNL1     0.0234
     112 H         0.099178   -3.162682   -2.225539 H        1 UNL1     0.0342
     113 H         -1.620057   -3.140215   -1.694536 H        1 UNL1     0.0342
     114 H         -1.161296   -2.474488   -3.264349 H        1 UNL1     0.0342
     115 H         -3.113673   -3.011993   1.745342 H        1 UNL1     0.0234
     116 H         -4.136399   -1.596754   2.013507 H        1 UNL1     0.0234
     117 H         -4.018509   -2.407527   0.437946 H        1 UNL1     0.0234
     118 H         -5.519022   4.48942   1.411284 H        1 UNL1     0.0309
     119 H         -5.491538   6.232908   1.820621 H        1 UNL1     0.0309
     120 H         -4.062865   5.400333   1.24802 H        1 UNL1     0.0309
     121 H         -6.221284   -1.049637   2.123197 H        1 UNL1     0.0524
     122 H         -6.672928   0.186015   0.941656 H        1 UNL1     0.0524
     123 H         -5.68613   -1.205436   0.428008 H        1 UNL1     0.0524
@<TRIPOS>BOND
     1     1     2    1
     2     1    42    1
     3     2     3    2
     4     3     4    1
     5     4     5    2
     6     5     7    1
     7     6    75    1
     8     6    76    1
     9     6    77    1
    10     7     9   am
    11     9    10    1
    12    10    11    2
    13    10    43    1
    14    11    14    1
    15    11    15    1
    16    12    13   ar
    17    12    27   ar
    18    12    43    1
    19    13    14    1
    20    13    30   ar
    21    14    17    2
    22    15    16    1
    23    16    17    1
    24    16    18    1
    25    16    22    1
    26    18    19    1
    27    19    20    1
    28    20    21    1
    29    21    22    1
    30    23    24    1
    31    23    88    1
    32    23    89    1
    33    24    25    1
    34    24    26    1
    35    24    90    1
    36    25    91    1
    37    25    92    1
    38    25    93    1
    39    26    94    1
    40    26    95    1
    41    26    96    1
    42    27    28   ar
    43    28    29   ar
    44    29    30   ar
    45    29    31    1
    46    30    33    1
    47    31    32    1
    48    32    33    1
    49    32    35    1
    50    34    97    1
    51    34    98    1
    52    34    99    1
    53    35    61    1
    54    36    37    1
    55    36    60    1
    56    37    38    1
    57    38    39    1
    58    39    40    1
    59    40    41    1
    60    41    42    1
    61    45   100    1
    62    47   101    1
    63    47   102    1
    64    47   103    1
    65    48   104    1
    66    49   105    1
    67    49   106    1
    68    49   107    1
    69    50   108    1
    70    51    59    1
    71    52   109    1
    72    52   110    1
    73    52   111    1
    74    53    54    1
    75    54    55    2
    76    54    56    1
    77    56   112    1
    78    56   113    1
    79    56   114    1
    80    57   115    1
    81    57   116    1
    82    57   117    1
    83    58   118    1
    84    58   119    1
    85    58   120    1
    86    59   121    1
    87    59   122    1
    88    59   123    1
    89    60    61    2
    90     1    47    1
    91     1    62    1
    92     2    63    1
    93     3    64    1
    94     4    65    1
    95     5     6    1
    96     7     8    2
    97     9    78    1
    98    15    79    1
    99    18    80    1
   100    18    81    1
   101    19    82    1
   102    19    83    1
   103    20    23    1
   104    21    84    1
   105    21    85    1
   106    22    86    1
   107    22    87    1
   108    27    45    1
   109    28    34    1
   110    32    58    1
   111    33    46    2
   112    36    51    1
   113    36    66    1
   114    37    52    1
   115    37    67    1
   116    38    53    1
   117    38    68    1
   118    42    48    1
   119    42    72    1
   120    43    44    2
   121    60    73    1
   122    61    74    1
   123    39    69    1
   124    39    57    1
   125    40    70    1
   126    40    50    1
   127    41    71    1
   128    41    49    1
