@<TRIPOS>MOLECULE
*****
 123 128 0 0 0
SMALL
GASTEIGER

@<TRIPOS>ATOM
     1 C         0.32493   -3.178042   2.821319 C.3        1 UNL1     0.0009
     2 C         -0.15846   -3.269026   4.608801 C.2        1 UNL1     -0.0787
     3 C         0.150815   -3.051161   6.006274 C.2        1 UNL1     -0.0649
     4 C         -0.870473   -3.251738   7.3416 C.2        1 UNL1     -0.0542
     5 C         -1.088648   -2.907671   8.69847 C.2        1 UNL1     0.0115
     6 C         -0.447492   -2.233788   9.942706 C.3        1 UNL1     -0.0348
     7 C         -2.551665   -3.11313   9.326448 C.2        1 UNL1     0.2441
     8 O         -2.837219   -4.053911   10.054401 O.2        1 UNL1     -0.2702
     9 N         -3.408362   -2.005958   9.198416 N.am        1 UNL1     -0.2772
     10 C         -4.091026   -2.062479   8.00506 C.2        1 UNL1     0.1049
     11 C         -3.449162   -1.605555   6.94513 C.2        1 UNL1     0.0801
     12 C         -5.451938   -3.593108   6.568945 C.ar        1 UNL1     0.0753
     13 C         -4.589128   -3.219966   5.489625 C.ar        1 UNL1     0.0305
     14 C         -3.642418   -2.113941   5.614125 C.2        1 UNL1     0.0924
     15 N         -2.310027   -0.896793   6.864169 N.pl3        1 UNL1     -0.3170
     16 C         -2.13407   -0.503123   5.491464 C.3        1 UNL1     0.1275
     17 N         -2.845426   -1.571665   4.697792 N.2        1 UNL1     -0.2557
     18 C         -2.93183   0.78062   5.283415 C.3        1 UNL1     0.0016
     19 C         -2.465108   1.812961   6.297334 C.3        1 UNL1     0.0026
     20 N         -1.040034   2.04493   6.106592 N.3        1 UNL1     -0.3018
     21 C         -0.194959   0.855007   6.226171 C.3        1 UNL1     0.0026
     22 C         -0.678428   -0.166794   5.195601 C.3        1 UNL1     0.0016
     23 C         -0.560091   3.216769   6.81164 C.3        1 UNL1     0.0012
     24 C         -1.72152   3.933631   7.518005 C.3        1 UNL1     -0.0339
     25 C         -2.057072   3.269678   8.863601 C.3        1 UNL1     -0.0615
     26 C         -1.397679   5.40781   7.687419 C.3        1 UNL1     -0.0615
     27 C         -6.43405   -4.566994   6.404265 C.ar        1 UNL1     0.1347
     28 C         -6.673578   -5.206301   5.200952 C.ar        1 UNL1     0.0342
     29 C         -5.780067   -4.858169   4.165768 C.ar        1 UNL1     0.1435
     30 C         -4.768303   -3.910652   4.326283 C.ar        1 UNL1     0.0774
     31 O         -5.951006   -5.31208   2.904915 O.3        1 UNL1     -0.4436
     32 C         -5.190412   -4.409139   2.088173 C.3        1 UNL1     0.3143
     33 C         -4.155057   -3.810025   3.018396 C.2        1 UNL1     0.2504
     34 C         -7.861956   -6.070413   4.882882 C.3        1 UNL1     -0.0327
     35 O         -4.480051   -5.199635   1.12705 O.2        1 UNL1     -0.4528
     36 C         -4.102252   -3.007185   -1.948421 C.3        1 UNL1     0.0854
     37 C         -3.43344   -1.585099   -2.082152 C.3        1 UNL1     0.0236
     38 C         -2.2796   -1.482476   -3.191146 C.3        1 UNL1     0.1131
     39 C         -1.105271   -2.542234   -3.202747 C.3        1 UNL1     0.0200
     40 C         -0.372211   -3.006629   -1.778178 C.3        1 UNL1     0.0661
     41 C         0.226785   -1.962827   -0.582648 C.3        1 UNL1     0.0091
     42 C         0.324459   -2.16968   1.237537 C.3        1 UNL1     0.0661
     43 C         -5.325534   -2.845124   7.844406 C.2        1 UNL1     0.2131
     44 O         -6.21228   -2.77839   8.676251 O.2        1 UNL1     -0.2851
     45 O         -7.201347   -4.904074   7.5174 O.3        1 UNL1     -0.5056
     46 O         -3.061137   -3.36936   2.744521 O.2        1 UNL1     -0.2836
     47 C         1.341763   -4.300292   2.479873 C.3        1 UNL1     -0.0566
     48 O         1.735326   -1.721855   1.327117 O.3        1 UNL1     -0.3909
     49 C         -0.303391   -0.570037   -0.840614 C.3        1 UNL1     -0.0577
     50 O         -1.07545   -4.075722   -1.177996 O.3        1 UNL1     -0.3910
     51 O         -3.495157   -4.045144   -2.684293 O.3        1 UNL1     -0.3753
     52 C         -3.325313   -0.860754   -0.700638 C.3        1 UNL1     -0.0564
     53 O         -1.909643   -0.071492   -3.544108 O.3        1 UNL1     -0.4608
     54 C         -2.601901   1.049802   -3.168064 C.2        1 UNL1     0.3042
     55 O         -3.820836   1.216221   -3.186502 O.2        1 UNL1     -0.2512
     56 C         -1.725904   2.145131   -2.629923 C.3        1 UNL1     0.0332
     57 C         -1.500422   -3.688572   -4.245791 C.3        1 UNL1     -0.0567
     58 C         -6.16576   -3.294569   1.643248 C.3        1 UNL1     0.0210
     59 C         -3.365216   -5.280707   -1.982607 C.3        1 UNL1     0.0372
     60 C         -4.253775   -3.502124   -0.552986 C.2        1 UNL1     -0.0208
     61 C         -4.000747   -4.702272   -0.029188 C.2        1 UNL1     0.0882
     62 H         -0.666732   -3.562148   2.553401 H        1 UNL1     0.0365
     63 H         -1.129321   -3.763031   4.532261 H        1 UNL1     0.0576
     64 H         1.074128   -2.557803   6.318042 H        1 UNL1     0.0615
     65 H         -1.715691   -3.817656   6.940568 H        1 UNL1     0.0622
     66 H         -5.123084   -2.869252   -2.331726 H        1 UNL1     0.0645
     67 H         -4.224141   -0.957963   -2.529423 H        1 UNL1     0.0362
     68 H         -2.872716   -1.694317   -4.093842 H        1 UNL1     0.0741
     69 H         -0.279372   -2.140279   -3.774352 H        1 UNL1     0.0359
     70 H         0.548075   -3.471972   -2.180162 H        1 UNL1     0.0600
     71 H         1.276263   -1.861922   -0.92231 H        1 UNL1     0.0348
     72 H         0.206766   -3.181516   0.823226 H        1 UNL1     0.0602
     73 H         -4.745412   -2.762284   0.028544 H        1 UNL1     0.0628
     74 H         -3.450043   -5.493765   -0.538601 H        1 UNL1     0.1022
     75 H         0.591767   -2.610624   10.100721 H        1 UNL1     0.0279
     76 H         -0.300844   -1.157327   9.889836 H        1 UNL1     0.0279
     77 H         -0.931575   -2.531512   10.884367 H        1 UNL1     0.0279
     78 H         -2.860683   -1.147981   9.197687 H        1 UNL1     0.1553
     79 H         -1.918123   -0.382773   7.631716 H        1 UNL1     0.1484
     80 H         -2.781563   1.132326   4.255559 H        1 UNL1     0.0317
     81 H         -4.005514   0.597014   5.398061 H        1 UNL1     0.0317
     82 H         -2.680112   1.496804   7.328707 H        1 UNL1     0.0428
     83 H         -3.048028   2.719642   6.13246 H        1 UNL1     0.0428
     84 H         0.859538   1.041385   6.000096 H        1 UNL1     0.0428
     85 H         -0.182614   0.463897   7.252913 H        1 UNL1     0.0428
     86 H         0.040517   -0.964623   5.219592 H        1 UNL1     0.0317
     87 H         -0.570326   0.241904   4.183486 H        1 UNL1     0.0317
     88 H         0.160741   2.886965   7.571195 H        1 UNL1     0.0429
     89 H         -0.026556   3.897847   6.136179 H        1 UNL1     0.0429
     90 H         -2.610704   3.893959   6.8777 H        1 UNL1     0.0308
     91 H         -1.149468   3.021937   9.422154 H        1 UNL1     0.0233
     92 H         -2.684835   3.925084   9.471849 H        1 UNL1     0.0233
     93 H         -2.619301   2.336163   8.739976 H        1 UNL1     0.0233
     94 H         -1.33748   5.661456   8.751316 H        1 UNL1     0.0233
     95 H         -0.429098   5.632322   7.231999 H        1 UNL1     0.0233
     96 H         -2.160549   6.039761   7.224131 H        1 UNL1     0.0233
     97 H         -8.632344   -6.000336   5.644998 H        1 UNL1     0.0280
     98 H         -8.344311   -5.7801   3.940381 H        1 UNL1     0.0280
     99 H         -7.543582   -7.123169   4.809133 H        1 UNL1     0.0280
     100 H         -7.195138   -4.262657   8.205999 H        1 UNL1     0.2922
     101 H         0.808281   -5.222572   2.250846 H        1 UNL1     0.0236
     102 H         2.095848   -4.445142   3.252762 H        1 UNL1     0.0236
     103 H         1.915987   -4.074758   1.565764 H        1 UNL1     0.0236
     104 H         1.748049   -0.886694   1.834379 H        1 UNL1     0.2098
     105 H         0.101264   -0.092986   -1.729707 H        1 UNL1     0.0234
     106 H         -1.390079   -0.487004   -0.82874 H        1 UNL1     0.0234
     107 H         0.0   0.0   0.0 H        1 UNL1     0.0234
     108 H         -0.891574   -4.876543   -1.705863 H        1 UNL1     0.2098
     109 H         -2.372574   -1.07024   -0.194558 H        1 UNL1     0.0234
     110 H         -3.473056   0.222356   -0.76983 H        1 UNL1     0.0234
     111 H         -4.109487   -1.192624   -0.007183 H        1 UNL1     0.0234
     112 H         -1.082813   2.53237   -3.426055 H        1 UNL1     0.0342
     113 H         -2.305427   2.945244   -2.171866 H        1 UNL1     0.0342
     114 H         -1.078498   1.7161   -1.852772 H        1 UNL1     0.0342
     115 H         -1.730813   -4.637399   -3.741971 H        1 UNL1     0.0234
     116 H         -2.353525   -3.437546   -4.879234 H        1 UNL1     0.0234
     117 H         -0.666817   -3.992655   -4.901974 H        1 UNL1     0.0234
     118 H         -5.845092   -2.814364   0.702194 H        1 UNL1     0.0309
     119 H         -7.19701   -3.644775   1.533335 H        1 UNL1     0.0309
     120 H         -6.202728   -2.460533   2.352561 H        1 UNL1     0.0309
     121 H         -2.363567   -5.313152   -1.554818 H        1 UNL1     0.0524
     122 H         -4.084296   -5.36722   -1.151056 H        1 UNL1     0.0524
     123 H         -3.509829   -6.115844   -2.662112 H        1 UNL1     0.0524
@<TRIPOS>BOND
     1     1     2    1
     2     1    42    1
     3     2     3    2
     4     3     4    1
     5     4     5    2
     6     5     7    1
     7     6    75    1
     8     6    76    1
     9     6    77    1
    10     7     9   am
    11     9    10    1
    12    10    11    2
    13    10    43    1
    14    11    14    1
    15    11    15    1
    16    12    13   ar
    17    12    27   ar
    18    12    43    1
    19    13    14    1
    20    13    30   ar
    21    14    17    2
    22    15    16    1
    23    16    17    1
    24    16    18    1
    25    16    22    1
    26    18    19    1
    27    19    20    1
    28    20    21    1
    29    21    22    1
    30    23    24    1
    31    23    88    1
    32    23    89    1
    33    24    25    1
    34    24    26    1
    35    24    90    1
    36    25    91    1
    37    25    92    1
    38    25    93    1
    39    26    94    1
    40    26    95    1
    41    26    96    1
    42    27    28   ar
    43    28    29   ar
    44    29    30   ar
    45    29    31    1
    46    30    33    1
    47    31    32    1
    48    32    33    1
    49    32    35    1
    50    34    97    1
    51    34    98    1
    52    34    99    1
    53    35    61    1
    54    36    37    1
    55    36    60    1
    56    37    38    1
    57    38    39    1
    58    39    40    1
    59    40    41    1
    60    41    42    1
    61    45   100    1
    62    47   101    1
    63    47   102    1
    64    47   103    1
    65    48   104    1
    66    49   105    1
    67    49   106    1
    68    49   107    1
    69    50   108    1
    70    51    59    1
    71    52   109    1
    72    52   110    1
    73    52   111    1
    74    53    54    1
    75    54    55    2
    76    54    56    1
    77    56   112    1
    78    56   113    1
    79    56   114    1
    80    57   115    1
    81    57   116    1
    82    57   117    1
    83    58   118    1
    84    58   119    1
    85    58   120    1
    86    59   121    1
    87    59   122    1
    88    59   123    1
    89    60    61    2
    90     1    47    1
    91     1    62    1
    92     2    63    1
    93     3    64    1
    94     4    65    1
    95     5     6    1
    96     7     8    2
    97     9    78    1
    98    15    79    1
    99    18    80    1
   100    18    81    1
   101    19    82    1
   102    19    83    1
   103    20    23    1
   104    21    84    1
   105    21    85    1
   106    22    86    1
   107    22    87    1
   108    27    45    1
   109    28    34    1
   110    32    58    1
   111    33    46    2
   112    36    51    1
   113    36    66    1
   114    37    52    1
   115    37    67    1
   116    38    53    1
   117    38    68    1
   118    42    48    1
   119    42    72    1
   120    43    44    2
   121    60    73    1
   122    61    74    1
   123    39    69    1
   124    39    57    1
   125    40    70    1
   126    40    50    1
   127    41    71    1
   128    41    49    1
