@<TRIPOS>MOLECULE
*****
 123 128 0 0 0
SMALL
GASTEIGER

@<TRIPOS>ATOM
     1 C         -1.128185   4.4289   0.283077 C.3        1 UNL1     0.0009
     2 C         -2.630086   5.387014   0.796252 C.2        1 UNL1     -0.0787
     3 C         -3.942256   5.920712   0.497215 C.2        1 UNL1     -0.0649
     4 C         -5.005003   6.71842   1.546304 C.2        1 UNL1     -0.0542
     5 C         -6.352155   7.09708   1.767381 C.2        1 UNL1     0.0115
     6 C         -7.758699   7.176704   1.112693 C.3        1 UNL1     -0.0348
     7 C         -6.807369   7.519906   3.24758 C.2        1 UNL1     0.2441
     8 O         -6.963268   8.684327   3.588673 O.2        1 UNL1     -0.2702
     9 N         -7.266646   6.459467   4.048009 N.am        1 UNL1     -0.2772
     10 C         -6.216541   5.871667   4.715162 C.2        1 UNL1     0.1049
     11 C         -5.525447   4.97374   4.03668 C.2        1 UNL1     0.0801
     12 C         -4.219892   6.397961   6.127161 C.ar        1 UNL1     0.0753
     13 C         -3.467114   5.573218   5.231766 C.ar        1 UNL1     0.0305
     14 C         -4.122409   4.729593   4.234803 C.2        1 UNL1     0.0924
     15 N         -5.800405   4.377932   2.863676 N.pl3        1 UNL1     -0.3170
     16 C         -4.812985   3.353641   2.649005 C.3        1 UNL1     0.1275
     17 N         -3.596518   3.838293   3.399368 N.2        1 UNL1     -0.2557
     18 C         -5.29178   2.103528   3.380904 C.3        1 UNL1     0.0016
     19 C         -6.682857   1.749408   2.879814 C.3        1 UNL1     0.0026
     20 N         -6.618726   1.522862   1.442597 N.3        1 UNL1     -0.3018
     21 C         -6.110465   2.64975   0.657637 C.3        1 UNL1     0.0026
     22 C         -4.710547   2.985555   1.174703 C.3        1 UNL1     0.0016
     23 C         -7.813674   0.89311   0.91709 C.3        1 UNL1     0.0012
     24 C         -8.216097   1.533459   -0.420731 C.3        1 UNL1     -0.0339
     25 C         -7.368792   2.779871   -0.725014 C.3        1 UNL1     -0.0615
     26 C         -8.123478   0.508289   -1.537526 C.3        1 UNL1     -0.0615
     27 C         -3.597141   7.105711   7.152534 C.ar        1 UNL1     0.1347
     28 C         -2.238641   7.036624   7.405034 C.ar        1 UNL1     0.0342
     29 C         -1.510939   6.257235   6.480823 C.ar        1 UNL1     0.1435
     30 C         -2.116419   5.571547   5.427045 C.ar        1 UNL1     0.0774
     31 O         -0.195697   6.002702   6.655054 O.3        1 UNL1     -0.4436
     32 C         0.061539   4.84924   5.840052 C.3        1 UNL1     0.3143
     33 C         -1.03164   4.853859   4.790694 C.2        1 UNL1     0.2504
     34 C         -1.54147   7.562193   8.628892 C.3        1 UNL1     -0.0327
     35 O         1.298712   5.079258   5.154671 O.2        1 UNL1     -0.4528
     36 C         2.848399   1.654623   4.627005 C.3        1 UNL1     0.0854
     37 C         2.252864   0.394611   3.888608 C.3        1 UNL1     0.0236
     38 C         3.171415   -0.197841   2.715147 C.3        1 UNL1     0.1131
     39 C         3.730945   0.766715   1.593173 C.3        1 UNL1     0.0200
     40 C         2.745253   1.922604   0.904138 C.3        1 UNL1     0.0661
     41 C         1.193255   1.656863   0.273033 C.3        1 UNL1     0.0091
     42 C         -0.271437   2.759744   0.211935 C.3        1 UNL1     0.0661
     43 C         -5.696906   6.404353   5.983459 C.2        1 UNL1     0.2131
     44 O         -6.458792   6.723897   6.877975 O.2        1 UNL1     -0.2851
     45 O         -4.396195   7.921146   7.951294 O.3        1 UNL1     -0.5056
     46 O         -1.005178   4.38931   3.672952 O.2        1 UNL1     -0.2836
     47 C         -0.254345   5.272891   -0.683393 C.3        1 UNL1     -0.0566
     48 O         -0.558434   2.488212   -1.217407 O.3        1 UNL1     -0.3909
     49 C         0.705565   0.300666   0.731709 C.3        1 UNL1     -0.0577
     50 O         2.759519   3.112565   1.666708 O.3        1 UNL1     -0.3910
     51 O         4.015098   2.20662   4.059955 O.3        1 UNL1     -0.3753
     52 C         0.696084   0.474072   3.765842 C.3        1 UNL1     -0.0564
     53 O         2.76711   -1.573701   2.272571 O.3        1 UNL1     -0.4608
     54 C         3.582448   -2.478616   1.644652 C.2        1 UNL1     0.3042
     55 O         4.299152   -2.283295   0.663824 O.2        1 UNL1     -0.2512
     56 C         3.604813   -3.827609   2.305282 C.3        1 UNL1     0.0332
     57 C         5.205616   1.207825   2.027848 C.3        1 UNL1     -0.0567
     58 C         -0.129472   3.616472   6.754013 C.3        1 UNL1     0.0210
     59 C         3.963842   3.614683   3.835016 C.3        1 UNL1     0.0372
     60 C         1.892844   2.77884   4.822481 C.2        1 UNL1     -0.0208
     61 C         2.050539   4.089871   4.635194 C.2        1 UNL1     0.0882
     62 H         -0.714586   4.575909   1.288082 H        1 UNL1     0.0365
     63 H         -2.325806   5.726438   1.788559 H        1 UNL1     0.0576
     64 H         -4.449717   5.698401   -0.44415 H        1 UNL1     0.0615
     65 H         -4.38293   6.961949   2.411869 H        1 UNL1     0.0622
     66 H         3.097338   1.29215   5.634323 H        1 UNL1     0.0645
     67 H         2.312434   -0.410385   4.641597 H        1 UNL1     0.0362
     68 H         4.050311   -0.500558   3.304576 H        1 UNL1     0.0741
     69 H         4.030682   0.171938   0.740643 H        1 UNL1     0.0359
     70 H         3.338144   2.165349   0.001578 H        1 UNL1     0.0600
     71 H         1.447685   1.449598   -0.784919 H        1 UNL1     0.0348
     72 H         0.59607   3.416302   0.372178 H        1 UNL1     0.0602
     73 H         1.011357   2.411318   5.286329 H        1 UNL1     0.0628
     74 H         2.896611   4.541228   4.115891 H        1 UNL1     0.1022
     75 H         -7.695618   7.653759   0.104985 H        1 UNL1     0.0279
     76 H         -8.24603   6.229366   0.893308 H        1 UNL1     0.0279
     77 H         -8.433761   7.868113   1.637998 H        1 UNL1     0.0279
     78 H         -7.693226   5.746732   3.459694 H        1 UNL1     0.1553
     79 H         -6.717813   4.342176   2.458685 H        1 UNL1     0.1484
     80 H         -4.580976   1.288415   3.19893 H        1 UNL1     0.0317
     81 H         -5.310557   2.267137   4.463739 H        1 UNL1     0.0317
     82 H         -7.415427   2.532508   3.124782 H        1 UNL1     0.0428
     83 H         -7.005778   0.856464   3.415932 H        1 UNL1     0.0428
     84 H         -5.997178   2.4265   -0.40779 H        1 UNL1     0.0428
     85 H         -6.798471   3.5062   0.679086 H        1 UNL1     0.0428
     86 H         -4.319492   3.720175   0.49544 H        1 UNL1     0.0317
     87 H         -4.042629   2.127237   1.032326 H        1 UNL1     0.0317
     88 H         -7.592478   -0.168216   0.74402 H        1 UNL1     0.0429
     89 H         -8.638072   0.936011   1.640486 H        1 UNL1     0.0429
     90 H         -9.270402   1.830874   -0.373842 H        1 UNL1     0.0308
     91 H         -7.5184   3.556714   0.030788 H        1 UNL1     0.0233
     92 H         -6.307688   2.523838   -0.770985 H        1 UNL1     0.0233
     93 H         -7.617653   3.227457   -1.694844 H        1 UNL1     0.0233
     94 H         -7.854859   0.998937   -2.479303 H        1 UNL1     0.0233
     95 H         -7.347059   -0.226484   -1.306779 H        1 UNL1     0.0233
     96 H         -9.073489   -0.01462   -1.678994 H        1 UNL1     0.0233
     97 H         -0.974699   8.464405   8.419094 H        1 UNL1     0.0280
     98 H         -2.248428   7.829723   9.425066 H        1 UNL1     0.0280
     99 H         -0.845732   6.798702   9.013762 H        1 UNL1     0.0280
     100 H         -4.105808   8.814162   8.013099 H        1 UNL1     0.2922
     101 H         -0.410295   6.333729   -0.488563 H        1 UNL1     0.0236
     102 H         -0.410717   5.022353   -1.732088 H        1 UNL1     0.0236
     103 H         0.823529   5.11272   -0.513906 H        1 UNL1     0.0236
     104 H         0.172648   2.868702   -1.742496 H        1 UNL1     0.2098
     105 H         1.47905   -0.461629   0.781087 H        1 UNL1     0.0234
     106 H         0.127897   0.313121   1.655868 H        1 UNL1     0.0234
     107 H         -0.0   0.0   0.0 H        1 UNL1     0.0234
     108 H         1.842203   3.445871   1.701449 H        1 UNL1     0.2098
     109 H         0.360733   1.429437   3.338609 H        1 UNL1     0.0234
     110 H         0.266717   -0.354547   3.192451 H        1 UNL1     0.0234
     111 H         0.208414   0.399732   4.746963 H        1 UNL1     0.0234
     112 H         3.492675   -4.612974   1.551643 H        1 UNL1     0.0342
     113 H         4.506727   -3.979245   2.896382 H        1 UNL1     0.0342
     114 H         2.745543   -3.890007   2.987138 H        1 UNL1     0.0342
     115 H         5.198071   2.138553   2.611695 H        1 UNL1     0.0234
     116 H         5.738982   0.456829   2.614001 H        1 UNL1     0.0234
     117 H         5.847545   1.495008   1.177322 H        1 UNL1     0.0234
     118 H         -0.72227   2.824608   6.263556 H        1 UNL1     0.0309
     119 H         0.816153   3.190848   7.104499 H        1 UNL1     0.0309
     120 H         -0.710541   3.846296   7.653817 H        1 UNL1     0.0309
     121 H         3.050603   3.826819   3.279724 H        1 UNL1     0.0524
     122 H         3.920604   4.187434   4.776358 H        1 UNL1     0.0524
     123 H         4.831661   3.936261   3.266182 H        1 UNL1     0.0524
@<TRIPOS>BOND
     1     1     2    1
     2     1    42    1
     3     2     3    2
     4     3     4    1
     5     4     5    2
     6     5     7    1
     7     6    75    1
     8     6    76    1
     9     6    77    1
    10     7     9   am
    11     9    10    1
    12    10    11    2
    13    10    43    1
    14    11    14    1
    15    11    15    1
    16    12    13   ar
    17    12    27   ar
    18    12    43    1
    19    13    14    1
    20    13    30   ar
    21    14    17    2
    22    15    16    1
    23    16    17    1
    24    16    18    1
    25    16    22    1
    26    18    19    1
    27    19    20    1
    28    20    21    1
    29    21    22    1
    30    23    24    1
    31    23    88    1
    32    23    89    1
    33    24    25    1
    34    24    26    1
    35    24    90    1
    36    25    91    1
    37    25    92    1
    38    25    93    1
    39    26    94    1
    40    26    95    1
    41    26    96    1
    42    27    28   ar
    43    28    29   ar
    44    29    30   ar
    45    29    31    1
    46    30    33    1
    47    31    32    1
    48    32    33    1
    49    32    35    1
    50    34    97    1
    51    34    98    1
    52    34    99    1
    53    35    61    1
    54    36    37    1
    55    36    60    1
    56    37    38    1
    57    38    39    1
    58    39    40    1
    59    40    41    1
    60    41    42    1
    61    45   100    1
    62    47   101    1
    63    47   102    1
    64    47   103    1
    65    48   104    1
    66    49   105    1
    67    49   106    1
    68    49   107    1
    69    50   108    1
    70    51    59    1
    71    52   109    1
    72    52   110    1
    73    52   111    1
    74    53    54    1
    75    54    55    2
    76    54    56    1
    77    56   112    1
    78    56   113    1
    79    56   114    1
    80    57   115    1
    81    57   116    1
    82    57   117    1
    83    58   118    1
    84    58   119    1
    85    58   120    1
    86    59   121    1
    87    59   122    1
    88    59   123    1
    89    60    61    2
    90     1    47    1
    91     1    62    1
    92     2    63    1
    93     3    64    1
    94     4    65    1
    95     5     6    1
    96     7     8    2
    97     9    78    1
    98    15    79    1
    99    18    80    1
   100    18    81    1
   101    19    82    1
   102    19    83    1
   103    20    23    1
   104    21    84    1
   105    21    85    1
   106    22    86    1
   107    22    87    1
   108    27    45    1
   109    28    34    1
   110    32    58    1
   111    33    46    2
   112    36    51    1
   113    36    66    1
   114    37    52    1
   115    37    67    1
   116    38    53    1
   117    38    68    1
   118    42    48    1
   119    42    72    1
   120    43    44    2
   121    60    73    1
   122    61    74    1
   123    39    69    1
   124    39    57    1
   125    40    70    1
   126    40    50    1
   127    41    71    1
   128    41    49    1
