@<TRIPOS>MOLECULE
*****
 123 128 0 0 0
SMALL
GASTEIGER

@<TRIPOS>ATOM
     1 C         4.97035   2.241762   0.530918 C.3        1 UNL1     0.0009
     2 C         6.357419   3.119556   -0.330799 C.2        1 UNL1     -0.0787
     3 C         7.669968   3.098905   -0.9414 C.2        1 UNL1     -0.0649
     4 C         8.45547   4.35388   -1.762608 C.2        1 UNL1     -0.0542
     5 C         9.481521   4.674039   -2.685535 C.2        1 UNL1     0.0115
     6 C         10.700655   4.09972   -3.458318 C.3        1 UNL1     -0.0348
     7 C         9.458979   6.108701   -3.405414 C.2        1 UNL1     0.2441
     8 O         10.182872   7.034752   -3.066396 O.2        1 UNL1     -0.2702
     9 N         8.742815   6.149852   -4.614367 N.am        1 UNL1     -0.2772
     10 C         7.416573   6.42973   -4.377568 C.2        1 UNL1     0.1049
     11 C         6.656845   5.404096   -4.038291 C.2        1 UNL1     0.0801
     12 C         5.910272   8.002214   -3.146435 C.ar        1 UNL1     0.0753
     13 C         5.245271   6.84184   -2.636617 C.ar        1 UNL1     0.0305
     14 C         5.515065   5.508782   -3.170676 C.2        1 UNL1     0.0924
     15 N         6.913837   4.08568   -4.085851 N.pl3        1 UNL1     -0.3170
     16 C         5.695522   3.388818   -3.769074 C.3        1 UNL1     0.1275
     17 N         4.928743   4.348026   -2.891752 N.2        1 UNL1     -0.2557
     18 C         4.89554   3.265915   -5.062374 C.3        1 UNL1     0.0016
     19 C         5.760298   2.576138   -6.105442 C.3        1 UNL1     0.0026
     20 N         6.145526   1.265328   -5.601057 N.3        1 UNL1     -0.3018
     21 C         6.867333   1.276937   -4.326998 C.3        1 UNL1     0.0026
     22 C         5.978548   1.970133   -3.292863 C.3        1 UNL1     0.0016
     23 C         6.71391   0.411717   -6.625231 C.3        1 UNL1     0.0012
     24 C         6.921944   1.199269   -7.928396 C.3        1 UNL1     -0.0339
     25 C         6.7006   0.311002   -9.163728 C.3        1 UNL1     -0.0615
     26 C         6.018893   2.420277   -7.948802 C.3        1 UNL1     -0.0615
     27 C         5.561411   9.280746   -2.717752 C.ar        1 UNL1     0.1347
     28 C         4.54081   9.526042   -1.816501 C.ar        1 UNL1     0.0342
     29 C         3.933063   8.365901   -1.291258 C.ar        1 UNL1     0.1435
     30 C         4.296552   7.077232   -1.684232 C.ar        1 UNL1     0.0774
     31 O         2.850578   8.44015   -0.486447 O.3        1 UNL1     -0.4436
     32 C         2.25798   7.134356   -0.554291 C.3        1 UNL1     0.3143
     33 C         3.384141   6.209328   -0.969378 C.2        1 UNL1     0.2504
     34 C         3.945837   10.87053   -1.502722 C.3        1 UNL1     -0.0327
     35 O         1.885468   6.76581   0.779374 O.2        1 UNL1     -0.4528
     36 C         -1.136082   4.495663   0.426166 C.3        1 UNL1     0.0854
     37 C         -1.2798   3.146058   -0.377223 C.3        1 UNL1     0.0236
     38 C         -1.788826   1.895419   0.487959 C.3        1 UNL1     0.1131
     39 C         -1.071276   1.54043   1.85228 C.3        1 UNL1     0.0200
     40 C         0.592943   1.564592   1.962878 C.3        1 UNL1     0.0661
     41 C         1.670931   0.808025   0.893692 C.3        1 UNL1     0.0091
     42 C         3.358004   1.294629   0.362277 C.3        1 UNL1     0.0661
     43 C         6.922784   7.805064   -4.213305 C.2        1 UNL1     0.2131
     44 O         7.264339   8.680929   -4.987216 O.2        1 UNL1     -0.2851
     45 O         6.28875   10.353496   -3.229243 O.3        1 UNL1     -0.5056
     46 O         3.510645   5.026903   -0.741954 O.2        1 UNL1     -0.2836
     47 C         5.344728   1.965092   2.01189 C.3        1 UNL1     -0.0566
     48 O         3.93679   -0.054397   0.572636 O.3        1 UNL1     -0.3909
     49 C         0.916637   0.399424   -0.351933 C.3        1 UNL1     -0.0577
     50 O         1.055516   2.862611   2.277354 O.3        1 UNL1     -0.3910
     51 O         -1.300404   4.401502   1.823149 O.3        1 UNL1     -0.3753
     52 C         -0.176619   3.002747   -1.476042 C.3        1 UNL1     -0.0564
     53 O         -2.249472   0.735863   -0.346044 O.3        1 UNL1     -0.4608
     54 C         -3.370629   -0.016453   -0.111614 C.2        1 UNL1     0.3042
     55 O         -4.348367   -0.148862   -0.846688 O.2        1 UNL1     -0.2512
     56 C         -3.319416   -0.78665   1.177141 C.3        1 UNL1     0.0332
     57 C         -1.906546   2.228758   3.029864 C.3        1 UNL1     -0.0567
     58 C         1.211281   7.187568   -1.691445 C.3        1 UNL1     0.0210
     59 C         -1.756926   5.596647   2.45488 C.3        1 UNL1     0.0372
     60 C         0.134594   5.234468   0.192264 C.2        1 UNL1     -0.0208
     61 C         0.963415   5.823625   1.055221 C.2        1 UNL1     0.0882
     62 H         4.398376   3.177434   0.522272 H        1 UNL1     0.0365
     63 H         5.986459   4.146559   -0.319759 H        1 UNL1     0.0576
     64 H         8.227801   2.168372   -1.068047 H        1 UNL1     0.0615
     65 H         7.867985   5.240051   -1.507569 H        1 UNL1     0.0622
     66 H         -1.935428   5.138425   0.031261 H        1 UNL1     0.0645
     67 H         -2.144357   3.32006   -1.041168 H        1 UNL1     0.0362
     68 H         -2.787753   2.261432   0.770275 H        1 UNL1     0.0741
     69 H         -1.311673   0.51926   2.116534 H        1 UNL1     0.0359
     70 H         0.730321   0.987986   2.897604 H        1 UNL1     0.0600
     71 H         1.794661   -0.168082   1.402479 H        1 UNL1     0.0348
     72 H         3.16389   1.84333   1.295317 H        1 UNL1     0.0602
     73 H         0.276915   5.362647   -0.852037 H        1 UNL1     0.0628
     74 H         0.920763   5.694674   2.137251 H        1 UNL1     0.1022
     75 H         11.361639   3.518129   -2.771379 H        1 UNL1     0.0279
     76 H         10.482121   3.376711   -4.240987 H        1 UNL1     0.0279
     77 H         11.388557   4.882622   -3.809822 H        1 UNL1     0.0279
     78 H         8.787467   5.240487   -5.069493 H        1 UNL1     0.1553
     79 H         7.642984   3.680111   -4.643336 H        1 UNL1     0.1484
     80 H         3.978744   2.697996   -4.863076 H        1 UNL1     0.0317
     81 H         4.581662   4.251184   -5.423452 H        1 UNL1     0.0317
     82 H         6.645042   3.17694   -6.362691 H        1 UNL1     0.0428
     83 H         5.171267   2.500421   -7.019969 H        1 UNL1     0.0428
     84 H         7.074489   0.277854   -3.931105 H        1 UNL1     0.0428
     85 H         7.860575   1.736684   -4.424063 H        1 UNL1     0.0428
     86 H         6.477603   1.842599   -2.350172 H        1 UNL1     0.0317
     87 H         5.045345   1.408319   -3.164045 H        1 UNL1     0.0317
     88 H         7.690889   0.057539   -6.271163 H        1 UNL1     0.0429
     89 H         6.091785   -0.476602   -6.794415 H        1 UNL1     0.0429
     90 H         7.947937   1.58507   -7.955035 H        1 UNL1     0.0308
     91 H         7.481268   -0.450603   -9.251004 H        1 UNL1     0.0233
     92 H         5.725178   -0.178918   -9.117474 H        1 UNL1     0.0233
     93 H         6.710413   0.885151   -10.098122 H        1 UNL1     0.0233
     94 H         5.497818   2.520727   -6.99056 H        1 UNL1     0.0233
     95 H         6.615353   3.323579   -8.104505 H        1 UNL1     0.0233
     96 H         5.270702   2.350012   -8.743308 H        1 UNL1     0.0233
     97 H         3.081154   10.79129   -0.850591 H        1 UNL1     0.0280
     98 H         4.656015   11.525978   -0.981866 H        1 UNL1     0.0280
     99 H         3.629701   11.361484   -2.437665 H        1 UNL1     0.0280
     100 H         6.53097   10.266214   -4.134414 H        1 UNL1     0.2922
     101 H         4.820578   2.666397   2.660807 H        1 UNL1     0.0236
     102 H         6.419546   1.968003   2.190052 H        1 UNL1     0.0236
     103 H         5.00731   0.969513   2.345305 H        1 UNL1     0.0236
     104 H         4.403897   -0.044385   1.430937 H        1 UNL1     0.2098
     105 H         0.684913   1.220133   -1.026137 H        1 UNL1     0.0234
     106 H         1.362634   -0.428121   -0.903461 H        1 UNL1     0.0234
     107 H         0.0   -0.0   0.0 H        1 UNL1     0.0234
     108 H         2.016842   2.877453   2.10589 H        1 UNL1     0.2098
     109 H         0.785923   3.426235   -1.15685 H        1 UNL1     0.0234
     110 H         -0.030386   1.968856   -1.806843 H        1 UNL1     0.0234
     111 H         -0.447908   3.540243   -2.394436 H        1 UNL1     0.0234
     112 H         -3.640188   -1.818852   1.006818 H        1 UNL1     0.0342
     113 H         -2.331546   -0.754885   1.634248 H        1 UNL1     0.0342
     114 H         -4.02663   -0.325921   1.88052 H        1 UNL1     0.0342
     115 H         -2.70542   2.874715   2.64034 H        1 UNL1     0.0234
     116 H         -2.365577   1.519732   3.721688 H        1 UNL1     0.0234
     117 H         -1.318625   2.950703   3.622389 H        1 UNL1     0.0234
     118 H         0.178242   7.218051   -1.302978 H        1 UNL1     0.0309
     119 H         1.361873   8.029208   -2.37494 H        1 UNL1     0.0309
     120 H         1.220567   6.286092   -2.313828 H        1 UNL1     0.0309
     121 H         -0.894729   6.249713   2.587086 H        1 UNL1     0.0524
     122 H         -2.493596   6.139836   1.839819 H        1 UNL1     0.0524
     123 H         -2.203431   5.365765   3.417906 H        1 UNL1     0.0524
@<TRIPOS>BOND
     1     1     2    1
     2     1    42    1
     3     2     3    2
     4     3     4    1
     5     4     5    2
     6     5     7    1
     7     6    75    1
     8     6    76    1
     9     6    77    1
    10     7     9   am
    11     9    10    1
    12    10    11    2
    13    10    43    1
    14    11    14    1
    15    11    15    1
    16    12    13   ar
    17    12    27   ar
    18    12    43    1
    19    13    14    1
    20    13    30   ar
    21    14    17    2
    22    15    16    1
    23    16    17    1
    24    16    18    1
    25    16    22    1
    26    18    19    1
    27    19    20    1
    28    20    21    1
    29    21    22    1
    30    23    24    1
    31    23    88    1
    32    23    89    1
    33    24    25    1
    34    24    26    1
    35    24    90    1
    36    25    91    1
    37    25    92    1
    38    25    93    1
    39    26    94    1
    40    26    95    1
    41    26    96    1
    42    27    28   ar
    43    28    29   ar
    44    29    30   ar
    45    29    31    1
    46    30    33    1
    47    31    32    1
    48    32    33    1
    49    32    35    1
    50    34    97    1
    51    34    98    1
    52    34    99    1
    53    35    61    1
    54    36    37    1
    55    36    60    1
    56    37    38    1
    57    38    39    1
    58    39    40    1
    59    40    41    1
    60    41    42    1
    61    45   100    1
    62    47   101    1
    63    47   102    1
    64    47   103    1
    65    48   104    1
    66    49   105    1
    67    49   106    1
    68    49   107    1
    69    50   108    1
    70    51    59    1
    71    52   109    1
    72    52   110    1
    73    52   111    1
    74    53    54    1
    75    54    55    2
    76    54    56    1
    77    56   112    1
    78    56   113    1
    79    56   114    1
    80    57   115    1
    81    57   116    1
    82    57   117    1
    83    58   118    1
    84    58   119    1
    85    58   120    1
    86    59   121    1
    87    59   122    1
    88    59   123    1
    89    60    61    2
    90     1    47    1
    91     1    62    1
    92     2    63    1
    93     3    64    1
    94     4    65    1
    95     5     6    1
    96     7     8    2
    97     9    78    1
    98    15    79    1
    99    18    80    1
   100    18    81    1
   101    19    82    1
   102    19    83    1
   103    20    23    1
   104    21    84    1
   105    21    85    1
   106    22    86    1
   107    22    87    1
   108    27    45    1
   109    28    34    1
   110    32    58    1
   111    33    46    2
   112    36    51    1
   113    36    66    1
   114    37    52    1
   115    37    67    1
   116    38    53    1
   117    38    68    1
   118    42    48    1
   119    42    72    1
   120    43    44    2
   121    60    73    1
   122    61    74    1
   123    39    69    1
   124    39    57    1
   125    40    70    1
   126    40    50    1
   127    41    71    1
   128    41    49    1
