@<TRIPOS>MOLECULE
*****
 123 128 0 0 0
SMALL
GASTEIGER

@<TRIPOS>ATOM
     1 C         0.377112   2.945352   -4.577565 C.3        1 UNL1     0.0009
     2 C         -0.268989   4.43254   -5.476378 C.2        1 UNL1     -0.0787
     3 C         -1.068302   5.01063   -6.536074 C.2        1 UNL1     -0.0649
     4 C         -1.399768   6.647325   -6.814853 C.2        1 UNL1     -0.0542
     5 C         -2.271581   7.562857   -7.454244 C.2        1 UNL1     0.0115
     6 C         -3.43532   7.68561   -8.475991 C.3        1 UNL1     -0.0348
     7 C         -2.280563   9.093747   -6.971249 C.2        1 UNL1     0.2441
     8 O         -1.720589   9.989453   -7.58823 O.2        1 UNL1     -0.2702
     9 N         -3.189763   9.380036   -5.938029 N.am        1 UNL1     -0.2772
     10 C         -2.604892   9.166782   -4.710931 C.2        1 UNL1     0.1049
     11 C         -2.603631   7.919914   -4.275567 C.2        1 UNL1     0.0801
     12 C         -0.550315   9.675079   -3.377633 C.ar        1 UNL1     0.0753
     13 C         -0.475371   8.272041   -3.104731 C.ar        1 UNL1     0.0305
     14 C         -1.574447   7.368209   -3.436651 C.2        1 UNL1     0.0924
     15 N         -3.265411   6.843947   -4.734771 N.pl3        1 UNL1     -0.3170
     16 C         -3.053471   5.767434   -3.803936 C.3        1 UNL1     0.1275
     17 N         -1.718175   6.073061   -3.170454 N.2        1 UNL1     -0.2557
     18 C         -4.091815   5.91658   -2.6961 C.3        1 UNL1     0.0016
     19 C         -5.475376   5.938553   -3.326072 C.3        1 UNL1     0.0026
     20 N         -5.672403   4.699418   -4.0655 N.3        1 UNL1     -0.3018
     21 C         -4.684116   4.437082   -5.113754 C.3        1 UNL1     0.0026
     22 C         -3.30232   4.414717   -4.457984 C.3        1 UNL1     0.0016
     23 C         -7.053177   4.486243   -4.451068 C.3        1 UNL1     0.0012
     24 C         -7.505423   5.562065   -5.450987 C.3        1 UNL1     -0.0339
     25 C         -7.060056   5.221861   -6.882757 C.3        1 UNL1     -0.0615
     26 C         -9.009512   5.754343   -5.364239 C.3        1 UNL1     -0.0615
     27 C         0.447572   10.547802   -2.950206 C.ar        1 UNL1     0.1347
     28 C         1.5439   10.141918   -2.210359 C.ar        1 UNL1     0.0342
     29 C         1.621514   8.749408   -1.99575 C.ar        1 UNL1     0.1435
     30 C         0.647878   7.858508   -2.449127 C.ar        1 UNL1     0.0774
     31 O         2.570801   8.210868   -1.199613 O.3        1 UNL1     -0.4436
     32 C         2.060103   6.915062   -0.851837 C.3        1 UNL1     0.3143
     33 C         1.077565   6.568138   -1.952053 C.2        1 UNL1     0.2504
     34 C         2.516479   11.046722   -1.506428 C.3        1 UNL1     -0.0327
     35 O         3.146988   5.987032   -0.955244 O.2        1 UNL1     -0.4528
     36 C         2.435107   3.262849   1.590369 C.3        1 UNL1     0.0854
     37 C         1.171223   2.328743   1.722913 C.3        1 UNL1     0.0236
     38 C         1.490095   0.757114   1.729665 C.3        1 UNL1     0.1131
     39 C         2.400086   0.135727   0.594735 C.3        1 UNL1     0.0200
     40 C         2.187705   0.583152   -0.998106 C.3        1 UNL1     0.0661
     41 C         0.71121   0.615683   -1.83268 C.3        1 UNL1     0.0091
     42 C         0.129046   1.717965   -3.178585 C.3        1 UNL1     0.0661
     43 C         -1.770128   10.183052   -4.053118 C.2        1 UNL1     0.2131
     44 O         -2.138537   11.342195   -3.994806 O.2        1 UNL1     -0.2851
     45 O         0.321247   11.891484   -3.296616 O.3        1 UNL1     -0.5056
     46 O         0.741933   5.473204   -2.344893 O.2        1 UNL1     -0.2836
     47 C         1.489768   2.253343   -5.410091 C.3        1 UNL1     -0.0566
     48 O         -0.380733   0.609073   -4.020963 O.3        1 UNL1     -0.3909
     49 C         -0.417548   0.50723   -0.83186 C.3        1 UNL1     -0.0577
     50 O         2.937288   1.743565   -1.296921 O.3        1 UNL1     -0.3910
     51 O         3.656418   2.612296   1.320904 O.3        1 UNL1     -0.3753
     52 C         -0.070883   2.921704   0.980944 C.3        1 UNL1     -0.0564
     53 O         0.342463   -0.086506   2.202499 O.3        1 UNL1     -0.4608
     54 C         0.325297   -1.456242   2.24069 C.2        1 UNL1     0.3042
     55 O         -0.233887   -2.218408   1.453128 O.2        1 UNL1     -0.2512
     56 C         1.14323   -2.036989   3.358917 C.3        1 UNL1     0.0332
     57 C         3.895824   0.070571   1.157494 C.3        1 UNL1     -0.0567
     58 C         1.282964   7.092416   0.473354 C.3        1 UNL1     0.0210
     59 C         4.492305   2.410993   2.459602 C.3        1 UNL1     0.0372
     60 C         2.304232   4.36024   0.59349 C.2        1 UNL1     -0.0208
     61 C         3.159724   4.792039   -0.334102 C.2        1 UNL1     0.0882
     62 H         0.884398   3.615379   -3.872982 H        1 UNL1     0.0365
     63 H         0.256472   5.232432   -4.950514 H        1 UNL1     0.0576
     64 H         -1.689807   4.391648   -7.186997 H        1 UNL1     0.0615
     65 H         -0.678666   7.170855   -6.181283 H        1 UNL1     0.0622
     66 H         2.519206   3.754103   2.569983 H        1 UNL1     0.0645
     67 H         0.828089   2.487528   2.760028 H        1 UNL1     0.0362
     68 H         2.089339   0.694959   2.650841 H        1 UNL1     0.0741
     69 H         2.237265   -0.933376   0.564449 H        1 UNL1     0.0359
     70 H         2.735074   -0.236864   -1.501119 H        1 UNL1     0.0600
     71 H         0.713196   -0.402546   -2.268758 H        1 UNL1     0.0348
     72 H         1.225605   1.800602   -3.171877 H        1 UNL1     0.0602
     73 H         1.412509   4.903128   0.786751 H        1 UNL1     0.0628
     74 H         4.065166   4.26238   -0.632218 H        1 UNL1     0.1022
     75 H         -4.176487   6.863792   -8.326588 H        1 UNL1     0.0279
     76 H         -4.054937   8.576395   -8.400855 H        1 UNL1     0.0279
     77 H         -3.11332   7.50156   -9.511434 H        1 UNL1     0.0279
     78 H         -3.992674   8.758209   -6.0069 H        1 UNL1     0.1553
     79 H         -4.072219   6.89802   -5.328968 H        1 UNL1     0.1484
     80 H         -3.98558   5.082583   -1.991877 H        1 UNL1     0.0317
     81 H         -3.923149   6.834414   -2.122704 H        1 UNL1     0.0317
     82 H         -5.612259   6.814247   -3.977483 H        1 UNL1     0.0428
     83 H         -6.200283   6.04736   -2.51878 H        1 UNL1     0.0428
     84 H         -4.807559   3.464076   -5.599381 H        1 UNL1     0.0428
     85 H         -4.76182   5.15875   -5.938663 H        1 UNL1     0.0428
     86 H         -2.623233   4.090404   -5.224567 H        1 UNL1     0.0317
     87 H         -3.252363   3.607804   -3.716706 H        1 UNL1     0.0317
     88 H         -7.124227   3.504744   -4.937798 H        1 UNL1     0.0429
     89 H         -7.712432   4.458721   -3.573914 H        1 UNL1     0.0429
     90 H         -7.063561   6.524602   -5.167272 H        1 UNL1     0.0308
     91 H         -7.223865   4.164098   -7.109487 H        1 UNL1     0.0233
     92 H         -7.599704   5.832392   -7.610521 H        1 UNL1     0.0233
     93 H         -5.994137   5.42105   -7.047 H        1 UNL1     0.0233
     94 H         -9.481123   5.476728   -6.313106 H        1 UNL1     0.0233
     95 H         -9.423686   5.112687   -4.581487 H        1 UNL1     0.0233
     96 H         -9.266754   6.79367   -5.141542 H        1 UNL1     0.0233
     97 H         2.045039   11.962166   -1.161557 H        1 UNL1     0.0280
     98 H         2.947786   10.575905   -0.613365 H        1 UNL1     0.0280
     99 H         3.333752   11.317078   -2.194953 H        1 UNL1     0.0280
     100 H         -0.185895   12.049532   -4.073436 H        1 UNL1     0.2922
     101 H         2.46514   2.478513   -4.979273 H        1 UNL1     0.0236
     102 H         1.445279   2.49669   -6.471122 H        1 UNL1     0.0236
     103 H         1.413405   1.153891   -5.370499 H        1 UNL1     0.0236
     104 H         -1.356159   0.668002   -4.027484 H        1 UNL1     0.2098
     105 H         -0.800251   1.462449   -0.48128 H        1 UNL1     0.0234
     106 H         -1.239396   -0.138658   -1.140602 H        1 UNL1     0.0234
     107 H         0.0   0.0   0.0 H        1 UNL1     0.0234
     108 H         3.789474   1.667704   -0.825972 H        1 UNL1     0.2098
     109 H         -0.369149   3.899253   1.38486 H        1 UNL1     0.0234
     110 H         0.072093   3.00092   -0.102119 H        1 UNL1     0.0234
     111 H         -0.952147   2.275041   1.086525 H        1 UNL1     0.0234
     112 H         1.1041   -3.129827   3.319936 H        1 UNL1     0.0342
     113 H         2.17254   -1.681985   3.340573 H        1 UNL1     0.0342
     114 H         0.69796   -1.71781   4.311295 H        1 UNL1     0.0342
     115 H         4.147994   0.96016   1.750983 H        1 UNL1     0.0234
     116 H         4.099555   -0.805569   1.7763 H        1 UNL1     0.0234
     117 H         4.665352   0.116121   0.367751 H        1 UNL1     0.0234
     118 H         0.2402   7.412668   0.302802 H        1 UNL1     0.0309
     119 H         1.283829   6.191948   1.095735 H        1 UNL1     0.0309
     120 H         1.694129   7.893067   1.09786 H        1 UNL1     0.0309
     121 H         5.521344   2.349725   2.106498 H        1 UNL1     0.0524
     122 H         4.435707   3.249461   3.173609 H        1 UNL1     0.0524
     123 H         4.216218   1.493185   2.970971 H        1 UNL1     0.0524
@<TRIPOS>BOND
     1     1     2    1
     2     1    42    1
     3     2     3    2
     4     3     4    1
     5     4     5    2
     6     5     7    1
     7     6    75    1
     8     6    76    1
     9     6    77    1
    10     7     9   am
    11     9    10    1
    12    10    11    2
    13    10    43    1
    14    11    14    1
    15    11    15    1
    16    12    13   ar
    17    12    27   ar
    18    12    43    1
    19    13    14    1
    20    13    30   ar
    21    14    17    2
    22    15    16    1
    23    16    17    1
    24    16    18    1
    25    16    22    1
    26    18    19    1
    27    19    20    1
    28    20    21    1
    29    21    22    1
    30    23    24    1
    31    23    88    1
    32    23    89    1
    33    24    25    1
    34    24    26    1
    35    24    90    1
    36    25    91    1
    37    25    92    1
    38    25    93    1
    39    26    94    1
    40    26    95    1
    41    26    96    1
    42    27    28   ar
    43    28    29   ar
    44    29    30   ar
    45    29    31    1
    46    30    33    1
    47    31    32    1
    48    32    33    1
    49    32    35    1
    50    34    97    1
    51    34    98    1
    52    34    99    1
    53    35    61    1
    54    36    37    1
    55    36    60    1
    56    37    38    1
    57    38    39    1
    58    39    40    1
    59    40    41    1
    60    41    42    1
    61    45   100    1
    62    47   101    1
    63    47   102    1
    64    47   103    1
    65    48   104    1
    66    49   105    1
    67    49   106    1
    68    49   107    1
    69    50   108    1
    70    51    59    1
    71    52   109    1
    72    52   110    1
    73    52   111    1
    74    53    54    1
    75    54    55    2
    76    54    56    1
    77    56   112    1
    78    56   113    1
    79    56   114    1
    80    57   115    1
    81    57   116    1
    82    57   117    1
    83    58   118    1
    84    58   119    1
    85    58   120    1
    86    59   121    1
    87    59   122    1
    88    59   123    1
    89    60    61    2
    90     1    47    1
    91     1    62    1
    92     2    63    1
    93     3    64    1
    94     4    65    1
    95     5     6    1
    96     7     8    2
    97     9    78    1
    98    15    79    1
    99    18    80    1
   100    18    81    1
   101    19    82    1
   102    19    83    1
   103    20    23    1
   104    21    84    1
   105    21    85    1
   106    22    86    1
   107    22    87    1
   108    27    45    1
   109    28    34    1
   110    32    58    1
   111    33    46    2
   112    36    51    1
   113    36    66    1
   114    37    52    1
   115    37    67    1
   116    38    53    1
   117    38    68    1
   118    42    48    1
   119    42    72    1
   120    43    44    2
   121    60    73    1
   122    61    74    1
   123    39    69    1
   124    39    57    1
   125    40    70    1
   126    40    50    1
   127    41    71    1
   128    41    49    1
