@<TRIPOS>MOLECULE
*****
 123 128 0 0 0
SMALL
GASTEIGER

@<TRIPOS>ATOM
     1 C         2.223335   3.677217   3.398031 C.3        1 UNL1     0.0009
     2 C         2.981553   5.361973   3.552099 C.2        1 UNL1     -0.0787
     3 C         4.150324   6.206011   3.684846 C.2        1 UNL1     -0.0649
     4 C         4.221081   7.897333   3.656861 C.2        1 UNL1     -0.0542
     5 C         5.060747   9.021144   3.459159 C.2        1 UNL1     0.0115
     6 C         6.53763   9.47181   3.28875 C.3        1 UNL1     -0.0348
     7 C         4.390492   10.447745   3.154928 C.2        1 UNL1     0.2441
     8 O         4.280374   11.325069   4.000328 O.2        1 UNL1     -0.2702
     9 N         4.175883   10.719102   1.792408 N.am        1 UNL1     -0.2772
     10 C         2.948509   10.240623   1.394998 C.2        1 UNL1     0.1049
     11 C         2.897491   8.958949   1.080465 C.2        1 UNL1     0.0801
     12 C         0.52792   10.221782   2.025653 C.ar        1 UNL1     0.0753
     13 C         0.579686   8.799684   1.872143 C.ar        1 UNL1     0.0305
     14 C         1.732626   8.136901   1.266751 C.2        1 UNL1     0.0924
     15 N         3.892959   8.078173   0.880955 N.pl3        1 UNL1     -0.3170
     16 C         3.308441   6.857823   0.391732 C.3        1 UNL1     0.1275
     17 N         1.909502   6.855367   0.958025 N.2        1 UNL1     -0.2557
     18 C         3.153514   7.004529   -1.118956 C.3        1 UNL1     0.0016
     19 C         4.51177   7.334056   -1.717405 C.3        1 UNL1     0.0026
     20 N         5.440762   6.262027   -1.387625 N.3        1 UNL1     -0.3018
     21 C         5.609374   6.003894   0.043915 C.3        1 UNL1     0.0026
     22 C         4.233652   5.670503   0.623687 C.3        1 UNL1     0.0016
     23 C         6.670052   6.325807   -2.152754 C.3        1 UNL1     0.0012
     24 C         6.407561   5.969547   -3.624465 C.3        1 UNL1     -0.0339
     25 C         5.074344   6.556836   -4.116076 C.3        1 UNL1     -0.0615
     26 C         7.571469   6.42666   -4.486523 C.3        1 UNL1     -0.0615
     27 C         -0.62137   10.856086   2.491388 C.ar        1 UNL1     0.1347
     28 C         -1.789428   10.18042   2.796621 C.ar        1 UNL1     0.0342
     29 C         -1.699386   8.77668   2.684513 C.ar        1 UNL1     0.1435
     30 C         -0.543295   8.124605   2.253847 C.ar        1 UNL1     0.0774
     31 O         -2.783709   7.986213   2.840762 O.3        1 UNL1     -0.4436
     32 C         -2.425492   6.749531   2.205805 C.3        1 UNL1     0.3143
     33 C         -0.910394   6.724464   2.213736 C.2        1 UNL1     0.2504
     34 C         -3.129453   10.809753   3.058103 C.3        1 UNL1     -0.0327
     35 O         -2.864791   5.68806   3.062279 O.2        1 UNL1     -0.4528
     36 C         -3.664244   2.767363   0.773504 C.3        1 UNL1     0.0854
     37 C         -2.733679   2.03313   -0.266917 C.3        1 UNL1     0.0236
     38 C         -2.612806   0.446957   -0.063967 C.3        1 UNL1     0.1131
     39 C         -2.253625   -0.137071   1.361575 C.3        1 UNL1     0.0200
     40 C         -1.054889   0.565198   2.284771 C.3        1 UNL1     0.0661
     41 C         0.510334   0.949365   1.755524 C.3        1 UNL1     0.0091
     42 C         1.632793   2.31322   2.250889 C.3        1 UNL1     0.0661
     43 C         1.708453   11.007112   1.587637 C.2        1 UNL1     0.2131
     44 O         1.660672   12.188594   1.296854 O.2        1 UNL1     -0.2851
     45 O         -0.57355   12.238937   2.655324 O.3        1 UNL1     -0.5056
     46 O         -0.172618   5.764501   2.210341 O.2        1 UNL1     -0.2836
     47 C         2.245557   2.948471   4.768584 C.3        1 UNL1     -0.0566
     48 O         2.813539   1.432318   2.421085 O.3        1 UNL1     -0.3909
     49 C         0.547061   0.874142   0.245396 C.3        1 UNL1     -0.0577
     50 O         -1.576238   1.625135   3.060949 O.3        1 UNL1     -0.3910
     51 O         -4.130262   1.980128   1.846127 O.3        1 UNL1     -0.3753
     52 C         -1.508434   2.914653   -0.675135 C.3        1 UNL1     -0.0564
     53 O         -2.024375   -0.266612   -1.24587 O.3        1 UNL1     -0.4608
     54 C         -1.425493   -1.498772   -1.213432 C.2        1 UNL1     0.3042
     55 O         -1.978103   -2.596425   -1.153277 O.2        1 UNL1     -0.2512
     56 C         0.07177   -1.442751   -1.32196 C.3        1 UNL1     0.0332
     57 C         -3.627424   -0.516533   2.087426 C.3        1 UNL1     -0.0567
     58 C         -2.915097   6.851301   0.742432 C.3        1 UNL1     0.0210
     59 C         -5.515143   1.642279   1.784271 C.3        1 UNL1     0.0372
     60 C         -3.08938   4.005051   1.367491 C.2        1 UNL1     -0.0208
     61 C         -3.069068   4.428213   2.632112 C.2        1 UNL1     0.0882
     62 H         1.237569   4.149847   3.310854 H        1 UNL1     0.0365
     63 H         2.085816   5.984656   3.600993 H        1 UNL1     0.0576
     64 H         5.161123   5.793291   3.652378 H        1 UNL1     0.0615
     65 H         3.177955   8.203762   3.772929 H        1 UNL1     0.0622
     66 H         -4.534191   3.091458   0.185116 H        1 UNL1     0.0645
     67 H         -3.294712   2.090857   -1.215847 H        1 UNL1     0.0362
     68 H         -3.659953   0.158394   -0.242113 H        1 UNL1     0.0741
     69 H         -1.897403   -1.151617   1.242366 H        1 UNL1     0.0359
     70 H         -0.874091   -0.248205   3.013296 H        1 UNL1     0.0600
     71 H         1.042003   0.017848   2.03222 H        1 UNL1     0.0348
     72 H         0.892139   2.221528   3.058564 H        1 UNL1     0.0602
     73 H         -2.761052   4.646676   0.587897 H        1 UNL1     0.0628
     74 H         -3.333172   3.812638   3.492666 H        1 UNL1     0.1022
     75 H         7.162766   9.093863   4.133377 H        1 UNL1     0.0279
     76 H         7.064365   9.088572   2.417688 H        1 UNL1     0.0279
     77 H         6.665321   10.55914   3.394158 H        1 UNL1     0.0279
     78 H         4.884081   10.247199   1.233982 H        1 UNL1     0.1553
     79 H         4.840694   8.343674   0.685405 H        1 UNL1     0.1484
     80 H         2.750901   6.070624   -1.529432 H        1 UNL1     0.0317
     81 H         2.431887   7.791291   -1.363721 H        1 UNL1     0.0317
     82 H         4.887287   8.305796   -1.364387 H        1 UNL1     0.0428
     83 H         4.378055   7.436119   -2.794788 H        1 UNL1     0.0428
     84 H         6.249491   5.143382   0.262044 H        1 UNL1     0.0428
     85 H         6.10472   6.841179   0.5547 H        1 UNL1     0.0428
     86 H         4.413745   5.359147   1.635918 H        1 UNL1     0.0317
     87 H         3.835266   4.76646   0.147148 H        1 UNL1     0.0317
     88 H         7.049315   7.354949   -2.104578 H        1 UNL1     0.0429
     89 H         7.443047   5.677607   -1.720217 H        1 UNL1     0.0429
     90 H         6.368097   4.878747   -3.728445 H        1 UNL1     0.0308
     91 H         4.854371   6.241326   -5.140364 H        1 UNL1     0.0233
     92 H         4.253551   6.251763   -3.462746 H        1 UNL1     0.0233
     93 H         5.075166   7.653573   -4.114269 H        1 UNL1     0.0233
     94 H         7.203539   6.818552   -5.440926 H        1 UNL1     0.0233
     95 H         8.118435   7.227767   -3.98153 H        1 UNL1     0.0233
     96 H         8.261739   5.604134   -4.69376 H        1 UNL1     0.0233
     97 H         -3.152735   11.339852   4.005564 H        1 UNL1     0.0280
     98 H         -3.395189   11.550528   2.292666 H        1 UNL1     0.0280
     99 H         -3.906285   10.028003   3.080339 H        1 UNL1     0.0280
     100 H         0.175111   12.550966   3.132574 H        1 UNL1     0.2922
     101 H         2.142421   1.874406   4.615608 H        1 UNL1     0.0236
     102 H         1.507643   3.334234   5.471189 H        1 UNL1     0.0236
     103 H         3.213137   3.066038   5.284491 H        1 UNL1     0.0236
     104 H         2.563757   0.54065   2.108822 H        1 UNL1     0.2098
     105 H         0.074989   1.714275   -0.25773 H        1 UNL1     0.0234
     106 H         1.53403   0.686737   -0.177333 H        1 UNL1     0.0234
     107 H         0.0   0.0   0.0 H        1 UNL1     0.0234
     108 H         -0.816996   2.139194   3.397196 H        1 UNL1     0.2098
     109 H         -1.814078   3.857523   -1.149782 H        1 UNL1     0.0234
     110 H         -0.833563   3.127257   0.160982 H        1 UNL1     0.0234
     111 H         -0.870223   2.405409   -1.409507 H        1 UNL1     0.0234
     112 H         0.485878   -2.454837   -1.282673 H        1 UNL1     0.0342
     113 H         0.398024   -0.921733   -2.220816 H        1 UNL1     0.0342
     114 H         0.457953   -0.887029   -0.456397 H        1 UNL1     0.0342
     115 H         -3.518871   -1.400709   2.730571 H        1 UNL1     0.0234
     116 H         -4.042281   0.286271   2.700164 H        1 UNL1     0.0234
     117 H         -4.414036   -0.854764   1.391163 H        1 UNL1     0.0234
     118 H         -3.764894   6.175632   0.541626 H        1 UNL1     0.0309
     119 H         -3.190905   7.869881   0.451527 H        1 UNL1     0.0309
     120 H         -2.157177   6.524886   0.021934 H        1 UNL1     0.0309
     121 H         -6.045281   2.296339   2.476019 H        1 UNL1     0.0524
     122 H         -5.9412   1.805643   0.780366 H        1 UNL1     0.0524
     123 H         -5.661345   0.602952   2.064483 H        1 UNL1     0.0524
@<TRIPOS>BOND
     1     1     2    1
     2     1    42    1
     3     2     3    2
     4     3     4    1
     5     4     5    2
     6     5     7    1
     7     6    75    1
     8     6    76    1
     9     6    77    1
    10     7     9   am
    11     9    10    1
    12    10    11    2
    13    10    43    1
    14    11    14    1
    15    11    15    1
    16    12    13   ar
    17    12    27   ar
    18    12    43    1
    19    13    14    1
    20    13    30   ar
    21    14    17    2
    22    15    16    1
    23    16    17    1
    24    16    18    1
    25    16    22    1
    26    18    19    1
    27    19    20    1
    28    20    21    1
    29    21    22    1
    30    23    24    1
    31    23    88    1
    32    23    89    1
    33    24    25    1
    34    24    26    1
    35    24    90    1
    36    25    91    1
    37    25    92    1
    38    25    93    1
    39    26    94    1
    40    26    95    1
    41    26    96    1
    42    27    28   ar
    43    28    29   ar
    44    29    30   ar
    45    29    31    1
    46    30    33    1
    47    31    32    1
    48    32    33    1
    49    32    35    1
    50    34    97    1
    51    34    98    1
    52    34    99    1
    53    35    61    1
    54    36    37    1
    55    36    60    1
    56    37    38    1
    57    38    39    1
    58    39    40    1
    59    40    41    1
    60    41    42    1
    61    45   100    1
    62    47   101    1
    63    47   102    1
    64    47   103    1
    65    48   104    1
    66    49   105    1
    67    49   106    1
    68    49   107    1
    69    50   108    1
    70    51    59    1
    71    52   109    1
    72    52   110    1
    73    52   111    1
    74    53    54    1
    75    54    55    2
    76    54    56    1
    77    56   112    1
    78    56   113    1
    79    56   114    1
    80    57   115    1
    81    57   116    1
    82    57   117    1
    83    58   118    1
    84    58   119    1
    85    58   120    1
    86    59   121    1
    87    59   122    1
    88    59   123    1
    89    60    61    2
    90     1    47    1
    91     1    62    1
    92     2    63    1
    93     3    64    1
    94     4    65    1
    95     5     6    1
    96     7     8    2
    97     9    78    1
    98    15    79    1
    99    18    80    1
   100    18    81    1
   101    19    82    1
   102    19    83    1
   103    20    23    1
   104    21    84    1
   105    21    85    1
   106    22    86    1
   107    22    87    1
   108    27    45    1
   109    28    34    1
   110    32    58    1
   111    33    46    2
   112    36    51    1
   113    36    66    1
   114    37    52    1
   115    37    67    1
   116    38    53    1
   117    38    68    1
   118    42    48    1
   119    42    72    1
   120    43    44    2
   121    60    73    1
   122    61    74    1
   123    39    69    1
   124    39    57    1
   125    40    70    1
   126    40    50    1
   127    41    71    1
   128    41    49    1
