@<TRIPOS>MOLECULE
*****
 123 128 0 0 0
SMALL
GASTEIGER

@<TRIPOS>ATOM
     1 C         3.868277   -0.294024   1.691989 C.3        1 UNL1     0.0009
     2 C         4.409808   0.257665   3.377047 C.2        1 UNL1     -0.0787
     3 C         5.108279   1.199615   4.226114 C.2        1 UNL1     -0.0649
     4 C         5.160528   1.235216   5.917965 C.2        1 UNL1     -0.0542
     5 C         5.41839   2.040164   7.05491 C.2        1 UNL1     0.0115
     6 C         5.988809   3.406998   7.523643 C.3        1 UNL1     -0.0348
     7 C         4.866182   1.564226   8.485133 C.2        1 UNL1     0.2441
     8 O         5.577059   1.041805   9.332633 O.2        1 UNL1     -0.2702
     9 N         3.575088   2.022444   8.800198 N.am        1 UNL1     -0.2772
     10 C         2.62564   1.14728   8.324848 C.2        1 UNL1     0.1049
     11 C         2.292827   1.283469   7.054057 C.2        1 UNL1     0.0801
     12 C         2.017132   -1.278286   8.264178 C.ar        1 UNL1     0.0753
     13 C         1.871296   -1.125765   6.848524 C.ar        1 UNL1     0.0305
     14 C         1.876599   0.191548   6.216298 C.2        1 UNL1     0.0924
     15 N         2.573055   2.273262   6.189007 N.pl3        1 UNL1     -0.3170
     16 C         1.832661   2.023628   4.980804 C.3        1 UNL1     0.1275
     17 N         1.658205   0.524904   4.947399 N.2        1 UNL1     -0.2557
     18 C         0.437086   2.608151   5.176772 C.3        1 UNL1     0.0016
     19 C         0.57211   4.078875   5.537783 C.3        1 UNL1     0.0026
     20 N         1.279825   4.76122   4.463272 N.3        1 UNL1     -0.3018
     21 C         2.609724   4.229259   4.158716 C.3        1 UNL1     0.0026
     22 C         2.449843   2.752252   3.794321 C.3        1 UNL1     0.0016
     23 C         1.200063   6.20493   4.563184 C.3        1 UNL1     0.0012
     24 C         -0.225669   6.688263   4.254261 C.3        1 UNL1     -0.0339
     25 C         -0.833254   7.445951   5.446237 C.3        1 UNL1     -0.0615
     26 C         -0.226602   7.535848   2.993952 C.3        1 UNL1     -0.0615
     27 C         1.890369   -2.524802   8.872659 C.ar        1 UNL1     0.1347
     28 C         1.580644   -3.679976   8.177178 C.ar        1 UNL1     0.0342
     29 C         1.489945   -3.514143   6.778809 C.ar        1 UNL1     0.1435
     30 C         1.650278   -2.278047   6.15145 C.ar        1 UNL1     0.0774
     31 O         1.086809   -4.521749   5.974309 O.3        1 UNL1     -0.4436
     32 C         0.670413   -3.874016   4.762727 C.3        1 UNL1     0.3143
     33 C         1.403527   -2.547892   4.750357 C.2        1 UNL1     0.2504
     34 C         1.183115   -4.995846   8.785912 C.3        1 UNL1     -0.0327
     35 O         1.183974   -4.644836   3.669409 O.2        1 UNL1     -0.4528
     36 C         -1.280931   -4.18061   0.820405 C.3        1 UNL1     0.0854
     37 C         -1.76566   -2.848259   0.129464 C.3        1 UNL1     0.0236
     38 C         -1.569864   -2.802047   -1.461534 C.3        1 UNL1     0.1131
     39 C         -0.162066   -3.156244   -2.08996 C.3        1 UNL1     0.0200
     40 C         1.240464   -2.56344   -1.408836 C.3        1 UNL1     0.0661
     41 C         1.53685   -0.945575   -0.993771 C.3        1 UNL1     0.0091
     42 C         2.544316   -0.230283   0.362243 C.3        1 UNL1     0.0661
     43 C         2.219162   -0.051124   9.073819 C.2        1 UNL1     0.2131
     44 O         1.971139   0.01843   10.263938 O.2        1 UNL1     -0.2851
     45 O         2.092127   -2.594017   10.249591 O.3        1 UNL1     -0.5056
     46 O         1.730139   -1.876306   3.797388 O.2        1 UNL1     -0.2836
     47 C         5.06254   -0.914102   0.917897 C.3        1 UNL1     -0.0566
     48 O         3.237674   0.744911   -0.513751 O.3        1 UNL1     -0.3909
     49 C         0.228079   -0.187929   -1.01798 C.3        1 UNL1     -0.0577
     50 O         1.697987   -3.417807   -0.380025 O.3        1 UNL1     -0.3910
     51 O         -0.583663   -5.084919   -0.006321 O.3        1 UNL1     -0.3753
     52 C         -1.513611   -1.598415   1.034622 C.3        1 UNL1     -0.0564
     53 O         -2.34228   -1.70257   -2.130001 O.3        1 UNL1     -0.4608
     54 C         -2.927092   -1.780106   -3.366898 C.2        1 UNL1     0.3042
     55 O         -2.52778   -1.274029   -4.414884 O.2        1 UNL1     -0.2512
     56 C         -4.160304   -2.637447   -3.396378 C.3        1 UNL1     0.0332
     57 C         -0.194072   -4.700478   -2.505282 C.3        1 UNL1     -0.0567
     58 C         -0.845347   -3.604749   4.909339 C.3        1 UNL1     0.0210
     59 C         -1.310803   -6.262392   -0.353726 C.3        1 UNL1     0.0372
     60 C         -0.452845   -3.990058   2.042339 C.2        1 UNL1     -0.0208
     61 C         0.676777   -4.588218   2.423001 C.2        1 UNL1     0.0882
     62 H         3.33092   -1.128298   2.158836 H        1 UNL1     0.0365
     63 H         4.038782   -0.566363   3.990062 H        1 UNL1     0.0576
     64 H         5.554226   2.111774   3.823368 H        1 UNL1     0.0615
     65 H         4.769703   0.25714   6.211403 H        1 UNL1     0.0622
     66 H         -2.206089   -4.669585   1.156609 H        1 UNL1     0.0645
     67 H         -2.865601   -2.887142   0.214192 H        1 UNL1     0.0362
     68 H         -2.235738   -3.628632   -1.752897 H        1 UNL1     0.0741
     69 H         -0.121446   -2.762645   -3.096855 H        1 UNL1     0.0359
     70 H         1.945549   -2.73473   -2.244644 H        1 UNL1     0.0600
     71 H         2.010972   -0.589714   -1.929468 H        1 UNL1     0.0348
     72 H         2.895086   -1.264999   0.237184 H        1 UNL1     0.0602
     73 H         -0.962846   -3.343541   2.712535 H        1 UNL1     0.0628
     74 H         1.289253   -5.217796   1.776672 H        1 UNL1     0.1022
     75 H         6.976563   3.605498   7.042007 H        1 UNL1     0.0279
     76 H         5.41476   4.290537   7.253651 H        1 UNL1     0.0279
     77 H         6.262379   3.410845   8.588934 H        1 UNL1     0.0279
     78 H         3.413078   2.922537   8.35336 H        1 UNL1     0.1553
     79 H         2.862899   3.192241   6.469007 H        1 UNL1     0.1484
     80 H         -0.139724   2.473628   4.253755 H        1 UNL1     0.0317
     81 H         -0.103821   2.073737   5.965106 H        1 UNL1     0.0317
     82 H         1.086486   4.216266   6.500307 H        1 UNL1     0.0428
     83 H         -0.434384   4.475425   5.674781 H        1 UNL1     0.0428
     84 H         3.086301   4.706661   3.296873 H        1 UNL1     0.0428
     85 H         3.316548   4.399357   4.982599 H        1 UNL1     0.0428
     86 H         3.416139   2.43255   3.450736 H        1 UNL1     0.0317
     87 H         1.817876   2.652389   2.9034 H        1 UNL1     0.0317
     88 H         1.450323   6.490334   5.593334 H        1 UNL1     0.0429
     89 H         1.93381   6.691168   3.907469 H        1 UNL1     0.0429
     90 H         -0.858782   5.820986   4.032421 H        1 UNL1     0.0308
     91 H         -0.060179   7.954411   6.030125 H        1 UNL1     0.0233
     92 H         -1.565708   8.180816   5.104048 H        1 UNL1     0.0233
     93 H         -1.36679   6.780677   6.135864 H        1 UNL1     0.0233
     94 H         -0.530892   8.561558   3.22882 H        1 UNL1     0.0233
     95 H         0.779685   7.572064   2.567292 H        1 UNL1     0.0233
     96 H         -0.913848   7.134704   2.243789 H        1 UNL1     0.0233
     97 H         0.203267   -5.321087   8.449242 H        1 UNL1     0.0280
     98 H         1.87674   -5.802947   8.516228 H        1 UNL1     0.0280
     99 H         1.15761   -4.901824   9.883912 H        1 UNL1     0.0280
     100 H         2.877745   -2.173205   10.551822 H        1 UNL1     0.2922
     101 H         4.851394   -0.906577   -0.151223 H        1 UNL1     0.0236
     102 H         5.334996   -1.90705   1.273995 H        1 UNL1     0.0236
     103 H         5.98198   -0.314786   1.0258 H        1 UNL1     0.0236
     104 H         4.016962   0.295974   -0.896031 H        1 UNL1     0.2098
     105 H         0.272767   0.769397   -1.531148 H        1 UNL1     0.0234
     106 H         -0.62621   -0.765872   -1.370257 H        1 UNL1     0.0234
     107 H         -0.0   0.0   0.0 H        1 UNL1     0.0234
     108 H         2.070376   -2.851558   0.323151 H        1 UNL1     0.2098
     109 H         -2.052637   -1.661373   1.990236 H        1 UNL1     0.0234
     110 H         -0.451158   -1.411966   1.224819 H        1 UNL1     0.0234
     111 H         -1.864456   -0.674534   0.55577 H        1 UNL1     0.0234
     112 H         -4.564037   -2.673858   -4.412753 H        1 UNL1     0.0342
     113 H         -3.971492   -3.639755   -3.014836 H        1 UNL1     0.0342
     114 H         -4.917109   -2.172254   -2.749844 H        1 UNL1     0.0342
     115 H         -1.117227   -5.194081   -2.171623 H        1 UNL1     0.0234
     116 H         -0.098885   -4.873458   -3.579091 H        1 UNL1     0.0234
     117 H         0.57042   -5.309711   -1.993102 H        1 UNL1     0.0234
     118 H         -1.446234   -4.238191   4.23355 H        1 UNL1     0.0309
     119 H         -1.206989   -3.731364   5.934711 H        1 UNL1     0.0309
     120 H         -1.121968   -2.586798   4.613765 H        1 UNL1     0.0309
     121 H         -1.024414   -7.045674   0.347564 H        1 UNL1     0.0524
     122 H         -2.401085   -6.121632   -0.267075 H        1 UNL1     0.0524
     123 H         -1.073937   -6.56426   -1.370026 H        1 UNL1     0.0524
@<TRIPOS>BOND
     1     1     2    1
     2     1    42    1
     3     2     3    2
     4     3     4    1
     5     4     5    2
     6     5     7    1
     7     6    75    1
     8     6    76    1
     9     6    77    1
    10     7     9   am
    11     9    10    1
    12    10    11    2
    13    10    43    1
    14    11    14    1
    15    11    15    1
    16    12    13   ar
    17    12    27   ar
    18    12    43    1
    19    13    14    1
    20    13    30   ar
    21    14    17    2
    22    15    16    1
    23    16    17    1
    24    16    18    1
    25    16    22    1
    26    18    19    1
    27    19    20    1
    28    20    21    1
    29    21    22    1
    30    23    24    1
    31    23    88    1
    32    23    89    1
    33    24    25    1
    34    24    26    1
    35    24    90    1
    36    25    91    1
    37    25    92    1
    38    25    93    1
    39    26    94    1
    40    26    95    1
    41    26    96    1
    42    27    28   ar
    43    28    29   ar
    44    29    30   ar
    45    29    31    1
    46    30    33    1
    47    31    32    1
    48    32    33    1
    49    32    35    1
    50    34    97    1
    51    34    98    1
    52    34    99    1
    53    35    61    1
    54    36    37    1
    55    36    60    1
    56    37    38    1
    57    38    39    1
    58    39    40    1
    59    40    41    1
    60    41    42    1
    61    45   100    1
    62    47   101    1
    63    47   102    1
    64    47   103    1
    65    48   104    1
    66    49   105    1
    67    49   106    1
    68    49   107    1
    69    50   108    1
    70    51    59    1
    71    52   109    1
    72    52   110    1
    73    52   111    1
    74    53    54    1
    75    54    55    2
    76    54    56    1
    77    56   112    1
    78    56   113    1
    79    56   114    1
    80    57   115    1
    81    57   116    1
    82    57   117    1
    83    58   118    1
    84    58   119    1
    85    58   120    1
    86    59   121    1
    87    59   122    1
    88    59   123    1
    89    60    61    2
    90     1    47    1
    91     1    62    1
    92     2    63    1
    93     3    64    1
    94     4    65    1
    95     5     6    1
    96     7     8    2
    97     9    78    1
    98    15    79    1
    99    18    80    1
   100    18    81    1
   101    19    82    1
   102    19    83    1
   103    20    23    1
   104    21    84    1
   105    21    85    1
   106    22    86    1
   107    22    87    1
   108    27    45    1
   109    28    34    1
   110    32    58    1
   111    33    46    2
   112    36    51    1
   113    36    66    1
   114    37    52    1
   115    37    67    1
   116    38    53    1
   117    38    68    1
   118    42    48    1
   119    42    72    1
   120    43    44    2
   121    60    73    1
   122    61    74    1
   123    39    69    1
   124    39    57    1
   125    40    70    1
   126    40    50    1
   127    41    71    1
   128    41    49    1
