@<TRIPOS>MOLECULE
*****
 123 128 0 0 0
SMALL
GASTEIGER

@<TRIPOS>ATOM
     1 C         5.168634   1.742014   0.499883 C.3        1 UNL1     0.0009
     2 C         6.607842   2.546092   -0.348159 C.2        1 UNL1     -0.0787
     3 C         7.890727   2.446108   -1.011677 C.2        1 UNL1     -0.0649
     4 C         8.771103   3.679956   -1.76594 C.2        1 UNL1     -0.0542
     5 C         9.793121   3.97111   -2.702843 C.2        1 UNL1     0.0115
     6 C         10.921969   3.344043   -3.566447 C.3        1 UNL1     -0.0348
     7 C         9.891464   5.454149   -3.309401 C.2        1 UNL1     0.2441
     8 O         10.715789   6.27476   -2.930438 O.2        1 UNL1     -0.2702
     9 N         9.143522   5.661936   -4.48139 N.am        1 UNL1     -0.2772
     10 C         7.860786   6.050364   -4.169888 C.2        1 UNL1     0.1049
     11 C         7.013215   5.080116   -3.87926 C.2        1 UNL1     0.0801
     12 C         6.562113   7.658945   -2.761609 C.ar        1 UNL1     0.0753
     13 C         5.800795   6.532103   -2.315254 C.ar        1 UNL1     0.0305
     14 C         5.9171   5.226152   -2.960248 C.2        1 UNL1     0.0924
     15 N         7.134345   3.750953   -4.037944 N.pl3        1 UNL1     -0.3170
     16 C         5.863156   3.153514   -3.725854 C.3        1 UNL1     0.1275
     17 N         5.226347   4.109737   -2.747163 N.2        1 UNL1     -0.2557
     18 C         5.012551   3.213527   -4.990991 C.3        1 UNL1     0.0016
     19 C         5.768454   2.528266   -6.118208 C.3        1 UNL1     0.0026
     20 N         6.036108   1.149865   -5.731685 N.3        1 UNL1     -0.3018
     21 C         6.79713   0.988644   -4.491031 C.3        1 UNL1     0.0026
     22 C         6.017384   1.680363   -3.37147 C.3        1 UNL1     0.0016
     23 C         6.481426   0.329573   -6.840493 C.3        1 UNL1     0.0012
     24 C         5.327333   0.081483   -7.824504 C.3        1 UNL1     -0.0339
     25 C         5.356211   1.084453   -8.989526 C.3        1 UNL1     -0.0615
     26 C         5.365675   -1.353349   -8.32106 C.3        1 UNL1     -0.0615
     27 C         6.358211   8.926989   -2.222531 C.ar        1 UNL1     0.1347
     28 C         5.39787   9.197953   -1.264213 C.ar        1 UNL1     0.0342
     29 C         4.694018   8.064503   -0.804813 C.ar        1 UNL1     0.1435
     30 C         4.912625   6.78211   -1.309688 C.ar        1 UNL1     0.0774
     31 O         3.651721   8.179579   0.04688 O.3        1 UNL1     -0.4436
     32 C         2.928653   6.947696   -0.096328 C.3        1 UNL1     0.3143
     33 C         3.94154   5.953167   -0.626597 C.2        1 UNL1     0.2504
     34 C         4.952091   10.564715   -0.824506 C.3        1 UNL1     -0.0327
     35 O         2.565192   6.511676   1.219359 O.2        1 UNL1     -0.4528
     36 C         -0.679733   4.58373   0.817387 C.3        1 UNL1     0.0854
     37 C         -0.985179   3.323413   -0.080291 C.3        1 UNL1     0.0236
     38 C         -1.588749   2.063289   0.706815 C.3        1 UNL1     0.1131
     39 C         -0.865915   1.531596   2.009536 C.3        1 UNL1     0.0200
     40 C         0.79501   1.383855   2.053557 C.3        1 UNL1     0.0661
     41 C         1.755349   0.613569   0.8865 C.3        1 UNL1     0.0091
     42 C         3.464373   0.973773   0.325349 C.3        1 UNL1     0.0661
     43 C         7.513786   7.449806   -3.880911 C.2        1 UNL1     0.2131
     44 O         7.916083   8.347239   -4.598901 O.2        1 UNL1     -0.2851
     45 O         7.17263   9.960946   -2.679799 O.3        1 UNL1     -0.5056
     46 O         3.955709   4.749633   -0.495604 O.2        1 UNL1     -0.2836
     47 C         5.561978   1.312242   1.938826 C.3        1 UNL1     -0.0566
     48 O         3.910924   -0.437913   0.408122 O.3        1 UNL1     -0.3909
     49 C         0.922964   0.381887   -0.354851 C.3        1 UNL1     -0.0577
     50 O         1.396156   2.600983   2.447189 O.3        1 UNL1     -0.3910
     51 O         -0.806439   4.394446   2.208627 O.3        1 UNL1     -0.3753
     52 C         0.06102   3.161369   -1.231011 C.3        1 UNL1     -0.0564
     53 O         -2.1912   1.02496   -0.19388 O.3        1 UNL1     -0.4608
     54 C         -2.415816   -0.28468   0.141265 C.2        1 UNL1     0.3042
     55 O         -1.844205   -1.278499   -0.305302 O.2        1 UNL1     -0.2512
     56 C         -3.447262   -0.461245   1.219067 C.3        1 UNL1     0.0332
     57 C         -1.588196   2.201753   3.269446 C.3        1 UNL1     -0.0567
     58 C         1.855628   7.194036   -1.18236 C.3        1 UNL1     0.0210
     59 C         -1.150251   5.567662   2.944306 C.3        1 UNL1     0.0372
     60 C         0.650488   5.21101   0.588927 C.2        1 UNL1     -0.0208
     61 C         1.562523   5.645174   1.459811 C.2        1 UNL1     0.0882
     62 H         4.693875   2.726833   0.586181 H        1 UNL1     0.0365
     63 H         6.342818   3.600262   -0.243479 H        1 UNL1     0.0576
     64 H         8.34747   1.478614   -1.231788 H        1 UNL1     0.0615
     65 H         8.28465   4.596057   -1.4201 H        1 UNL1     0.0622
     66 H         -1.422862   5.331196   0.505778 H        1 UNL1     0.0645
     67 H         -1.849277   3.633826   -0.693102 H        1 UNL1     0.0362
     68 H         -2.535833   2.501483   1.056873 H        1 UNL1     0.0741
     69 H         -1.199113   0.520973   2.204543 H        1 UNL1     0.0359
     70 H         0.904413   0.723525   2.935065 H        1 UNL1     0.0600
     71 H         1.796849   -0.407581   1.313686 H        1 UNL1     0.0348
     72 H         3.357481   1.462284   1.30476 H        1 UNL1     0.0602
     73 H         0.770402   5.407927   -0.447458 H        1 UNL1     0.0628
     74 H         1.542884   5.434715   2.529651 H        1 UNL1     0.1022
     75 H         10.96472   2.238732   -3.413169 H        1 UNL1     0.0279
     76 H         10.810274   3.426799   -4.645217 H        1 UNL1     0.0279
     77 H         11.926894   3.647465   -3.238176 H        1 UNL1     0.0279
     78 H         9.081253   4.791981   -5.006155 H        1 UNL1     0.1553
     79 H         7.800089   3.321972   -4.654136 H        1 UNL1     0.1484
     80 H         4.05029   2.723906   -4.798401 H        1 UNL1     0.0317
     81 H         4.787781   4.250534   -5.262553 H        1 UNL1     0.0317
     82 H         6.700242   3.058287   -6.364708 H        1 UNL1     0.0428
     83 H         5.144886   2.584088   -7.01101 H        1 UNL1     0.0428
     84 H         6.915538   -0.054414   -4.181481 H        1 UNL1     0.0428
     85 H         7.827886   1.355288   -4.593168 H        1 UNL1     0.0428
     86 H         6.531936   1.42947   -2.462472 H        1 UNL1     0.0317
     87 H         5.037094   1.204052   -3.247957 H        1 UNL1     0.0317
     88 H         7.279101   0.870219   -7.366528 H        1 UNL1     0.0429
     89 H         6.912167   -0.616713   -6.488673 H        1 UNL1     0.0429
     90 H         4.373716   0.189551   -7.29427 H        1 UNL1     0.0308
     91 H         6.305987   1.038189   -9.530717 H        1 UNL1     0.0233
     92 H         4.536852   0.891322   -9.685916 H        1 UNL1     0.0233
     93 H         5.232665   2.120549   -8.651775 H        1 UNL1     0.0233
     94 H         4.670639   -1.482147   -9.157822 H        1 UNL1     0.0233
     95 H         6.370324   -1.599022   -8.67643 H        1 UNL1     0.0233
     96 H         5.08903   -2.056683   -7.530644 H        1 UNL1     0.0233
     97 H         4.157436   10.516121   -0.085999 H        1 UNL1     0.0280
     98 H         5.764806   11.13376   -0.354464 H        1 UNL1     0.0280
     99 H         4.580636   11.129592   -1.695156 H        1 UNL1     0.0280
     100 H         6.70714   10.711858   -3.003949 H        1 UNL1     0.2922
     101 H         4.697736   0.879839   2.442582 H        1 UNL1     0.0236
     102 H         6.012849   2.11709   2.518411 H        1 UNL1     0.0236
     103 H         6.31716   0.508568   1.939146 H        1 UNL1     0.0236
     104 H         4.328812   -0.564304   1.282402 H        1 UNL1     0.2098
     105 H         0.712481   1.280897   -0.928687 H        1 UNL1     0.0234
     106 H         1.292414   -0.406742   -1.010212 H        1 UNL1     0.0234
     107 H         0.0   -0.0   0.0 H        1 UNL1     0.0234
     108 H         1.197259   3.260109   1.754541 H        1 UNL1     0.2098
     109 H         1.085059   3.046601   -0.849064 H        1 UNL1     0.0234
     110 H         -0.171372   2.334456   -1.910682 H        1 UNL1     0.0234
     111 H         0.084488   4.044036   -1.883923 H        1 UNL1     0.0234
     112 H         -3.574402   -1.524989   1.441844 H        1 UNL1     0.0342
     113 H         -3.199314   0.099501   2.119028 H        1 UNL1     0.0342
     114 H         -4.406025   -0.079119   0.842347 H        1 UNL1     0.0342
     115 H         -2.652799   1.934748   3.319611 H        1 UNL1     0.0234
     116 H         -1.138622   1.940783   4.229565 H        1 UNL1     0.0234
     117 H         -1.647102   3.302116   3.208845 H        1 UNL1     0.0234
     118 H         0.954506   7.682211   -0.771666 H        1 UNL1     0.0309
     119 H         2.227207   7.781376   -2.028033 H        1 UNL1     0.0309
     120 H         1.46654   6.262516   -1.607786 H        1 UNL1     0.0309
     121 H         -0.346318   6.290299   2.80703 H        1 UNL1     0.0524
     122 H         -2.080834   6.032937   2.578833 H        1 UNL1     0.0524
     123 H         -1.264998   5.330307   3.998151 H        1 UNL1     0.0524
@<TRIPOS>BOND
     1     1     2    1
     2     1    42    1
     3     2     3    2
     4     3     4    1
     5     4     5    2
     6     5     7    1
     7     6    75    1
     8     6    76    1
     9     6    77    1
    10     7     9   am
    11     9    10    1
    12    10    11    2
    13    10    43    1
    14    11    14    1
    15    11    15    1
    16    12    13   ar
    17    12    27   ar
    18    12    43    1
    19    13    14    1
    20    13    30   ar
    21    14    17    2
    22    15    16    1
    23    16    17    1
    24    16    18    1
    25    16    22    1
    26    18    19    1
    27    19    20    1
    28    20    21    1
    29    21    22    1
    30    23    24    1
    31    23    88    1
    32    23    89    1
    33    24    25    1
    34    24    26    1
    35    24    90    1
    36    25    91    1
    37    25    92    1
    38    25    93    1
    39    26    94    1
    40    26    95    1
    41    26    96    1
    42    27    28   ar
    43    28    29   ar
    44    29    30   ar
    45    29    31    1
    46    30    33    1
    47    31    32    1
    48    32    33    1
    49    32    35    1
    50    34    97    1
    51    34    98    1
    52    34    99    1
    53    35    61    1
    54    36    37    1
    55    36    60    1
    56    37    38    1
    57    38    39    1
    58    39    40    1
    59    40    41    1
    60    41    42    1
    61    45   100    1
    62    47   101    1
    63    47   102    1
    64    47   103    1
    65    48   104    1
    66    49   105    1
    67    49   106    1
    68    49   107    1
    69    50   108    1
    70    51    59    1
    71    52   109    1
    72    52   110    1
    73    52   111    1
    74    53    54    1
    75    54    55    2
    76    54    56    1
    77    56   112    1
    78    56   113    1
    79    56   114    1
    80    57   115    1
    81    57   116    1
    82    57   117    1
    83    58   118    1
    84    58   119    1
    85    58   120    1
    86    59   121    1
    87    59   122    1
    88    59   123    1
    89    60    61    2
    90     1    47    1
    91     1    62    1
    92     2    63    1
    93     3    64    1
    94     4    65    1
    95     5     6    1
    96     7     8    2
    97     9    78    1
    98    15    79    1
    99    18    80    1
   100    18    81    1
   101    19    82    1
   102    19    83    1
   103    20    23    1
   104    21    84    1
   105    21    85    1
   106    22    86    1
   107    22    87    1
   108    27    45    1
   109    28    34    1
   110    32    58    1
   111    33    46    2
   112    36    51    1
   113    36    66    1
   114    37    52    1
   115    37    67    1
   116    38    53    1
   117    38    68    1
   118    42    48    1
   119    42    72    1
   120    43    44    2
   121    60    73    1
   122    61    74    1
   123    39    69    1
   124    39    57    1
   125    40    70    1
   126    40    50    1
   127    41    71    1
   128    41    49    1
