@<TRIPOS>MOLECULE
*****
 123 128 0 0 0
SMALL
GASTEIGER

@<TRIPOS>ATOM
     1 C         1.378209   -3.046067   4.338351 C.3        1 UNL1     0.0009
     2 C         2.712218   -4.040229   5.156336 C.2        1 UNL1     -0.0787
     3 C         3.304451   -5.320855   5.48084 C.2        1 UNL1     -0.0649
     4 C         4.776996   -5.618452   6.261484 C.2        1 UNL1     -0.0542
     5 C         5.796003   -6.575157   6.492607 C.2        1 UNL1     0.0115
     6 C         6.180059   -8.069874   6.314711 C.3        1 UNL1     -0.0348
     7 C         7.22263   -6.075468   7.033011 C.2        1 UNL1     0.2441
     8 O         7.567198   -6.185354   8.201653 O.2        1 UNL1     -0.2702
     9 N         8.149119   -5.74307   6.029377 N.am        1 UNL1     -0.2772
     10 C         8.008496   -4.424009   5.663828 C.2        1 UNL1     0.1049
     11 C         7.059665   -4.162025   4.783314 C.2        1 UNL1     0.0801
     12 C         7.826644   -2.113443   6.604865 C.ar        1 UNL1     0.0753
     13 C         6.669844   -1.952093   5.777587 C.ar        1 UNL1     0.0305
     14 C         6.327318   -2.925331   4.74292 C.2        1 UNL1     0.0924
     15 N         6.336094   -4.997721   4.018733 N.pl3        1 UNL1     -0.3170
     16 C         5.56005   -4.198978   3.107679 C.3        1 UNL1     0.1275
     17 N         5.36173   -2.888237   3.829032 N.2        1 UNL1     -0.2557
     18 C         6.448851   -3.891028   1.906471 C.3        1 UNL1     0.0016
     19 C         6.94859   -5.202727   1.322265 C.3        1 UNL1     0.0026
     20 N         5.800057   -6.0084   0.931382 N.3        1 UNL1     -0.3018
     21 C         4.853453   -6.305378   2.008468 C.3        1 UNL1     0.0026
     22 C         4.360746   -4.973798   2.577704 C.3        1 UNL1     0.0016
     23 C         6.16086   -7.137519   0.097383 C.3        1 UNL1     0.0012
     24 C         6.601797   -6.659514   -1.29504 C.3        1 UNL1     -0.0339
     25 C         8.131108   -6.529794   -1.386896 C.3        1 UNL1     -0.0615
     26 C         6.054651   -7.590816   -2.362789 C.3        1 UNL1     -0.0615
     27 C         8.213869   -1.123669   7.505155 C.ar        1 UNL1     0.1347
     28 C         7.549094   0.082326   7.638192 C.ar        1 UNL1     0.0342
     29 C         6.385204   0.1987   6.8489 C.ar        1 UNL1     0.1435
     30 C         5.964724   -0.799412   5.969019 C.ar        1 UNL1     0.0774
     31 O         5.690192   1.355333   6.784362 O.3        1 UNL1     -0.4436
     32 C         4.914751   1.245818   5.581211 C.3        1 UNL1     0.3143
     33 C         4.796143   -0.242179   5.320424 C.2        1 UNL1     0.2504
     34 C         8.045452   1.284161   8.392727 C.3        1 UNL1     -0.0327
     35 O         3.596997   1.723559   5.878769 O.2        1 UNL1     -0.4528
     36 C         2.259652   3.175396   2.636584 C.3        1 UNL1     0.0854
     37 C         2.085635   2.481258   1.23109 C.3        1 UNL1     0.0236
     38 C         0.60514   2.555623   0.619251 C.3        1 UNL1     0.1131
     39 C         -0.632062   2.116423   1.501694 C.3        1 UNL1     0.0200
     40 C         -0.557977   0.733823   2.431945 C.3        1 UNL1     0.0661
     41 C         -0.058142   -0.796998   1.898687 C.3        1 UNL1     0.0091
     42 C         0.80596   -2.145284   2.793591 C.3        1 UNL1     0.0661
     43 C         8.651643   -3.331271   6.40857 C.2        1 UNL1     0.2131
     44 O         9.821351   -3.412002   6.737207 O.2        1 UNL1     -0.2851
     45 O         9.325417   -1.378835   8.305648 O.3        1 UNL1     -0.5056
     46 O         3.922216   -0.836335   4.729591 O.2        1 UNL1     -0.2836
     47 C         0.063895   -3.1276   5.16049 C.3        1 UNL1     -0.0566
     48 O         -0.113223   -3.206206   2.315402 O.3        1 UNL1     -0.3909
     49 C         0.626657   -0.647313   0.558486 C.3        1 UNL1     -0.0577
     50 O         0.00426   1.011572   3.698622 O.3        1 UNL1     -0.3910
     51 O         1.073092   3.616804   3.256798 O.3        1 UNL1     -0.3753
     52 C         2.976254   1.202829   1.099306 C.3        1 UNL1     -0.0564
     53 O         0.540458   2.211684   -0.840149 O.3        1 UNL1     -0.4608
     54 C         -0.584925   1.816242   -1.514737 C.2        1 UNL1     0.3042
     55 O         -0.819884   0.705442   -1.988823 O.2        1 UNL1     -0.2512
     56 C         -1.637433   2.884184   -1.606602 C.3        1 UNL1     0.0332
     57 C         -1.237491   3.435431   2.173889 C.3        1 UNL1     -0.0567
     58 C         5.761657   1.883657   4.455404 C.3        1 UNL1     0.0210
     59 C         1.233808   4.730596   4.134012 C.3        1 UNL1     0.0372
     60 C         2.999109   2.371603   3.647663 C.2        1 UNL1     -0.0208
     61 C         2.734043   2.146771   4.935271 C.2        1 UNL1     0.0882
     62 H         1.890933   -2.13079   4.657874 H        1 UNL1     0.0365
     63 H         3.281439   -3.249851   5.650056 H        1 UNL1     0.0576
     64 H         2.9016   -6.255043   5.083208 H        1 UNL1     0.0615
     65 H         5.048255   -4.647647   6.685085 H        1 UNL1     0.0622
     66 H         2.886418   4.055301   2.434156 H        1 UNL1     0.0645
     67 H         2.642611   3.135591   0.538135 H        1 UNL1     0.0362
     68 H         0.508525   3.645931   0.503425 H        1 UNL1     0.0741
     69 H         -1.472106   1.918551   0.849329 H        1 UNL1     0.0359
     70 H         -1.635486   0.582489   2.634758 H        1 UNL1     0.0600
     71 H         -1.034316   -1.224839   1.597034 H        1 UNL1     0.0348
     72 H         0.369837   -1.497997   3.568274 H        1 UNL1     0.0602
     73 H         3.922226   2.051497   3.232169 H        1 UNL1     0.0628
     74 H         1.789194   2.390723   5.422083 H        1 UNL1     0.1022
     75 H         5.356222   -8.628769   5.808784 H        1 UNL1     0.0279
     76 H         7.033183   -8.278512   5.673058 H        1 UNL1     0.0279
     77 H         6.251031   -8.607509   7.271588 H        1 UNL1     0.0279
     78 H         7.975599   -6.310343   5.202232 H        1 UNL1     0.1553
     79 H         6.60498   -5.943641   3.819062 H        1 UNL1     0.1484
     80 H         5.870192   -3.319553   1.170716 H        1 UNL1     0.0317
     81 H         7.295569   -3.260233   2.197704 H        1 UNL1     0.0317
     82 H         7.590255   -5.746039   2.031483 H        1 UNL1     0.0428
     83 H         7.581667   -4.959906   0.468274 H        1 UNL1     0.0428
     84 H         3.961211   -6.842807   1.672483 H        1 UNL1     0.0428
     85 H         5.292889   -6.96653   2.768133 H        1 UNL1     0.0428
     86 H         3.576238   -5.226055   3.266835 H        1 UNL1     0.0317
     87 H         3.840559   -4.402885   1.798885 H        1 UNL1     0.0317
     88 H         7.003773   -7.656932   0.571726 H        1 UNL1     0.0429
     89 H         5.337322   -7.859618   0.025746 H        1 UNL1     0.0429
     90 H         6.155443   -5.678396   -1.496007 H        1 UNL1     0.0308
     91 H         8.625265   -7.478473   -1.156854 H        1 UNL1     0.0233
     92 H         8.43171   -6.201534   -2.38464 H        1 UNL1     0.0233
     93 H         8.529883   -5.785476   -0.687035 H        1 UNL1     0.0233
     94 H         6.517583   -7.369279   -3.330493 H        1 UNL1     0.0233
     95 H         6.286567   -8.628692   -2.107857 H        1 UNL1     0.0233
     96 H         4.97096   -7.486417   -2.46615 H        1 UNL1     0.0233
     97 H         7.360339   2.123409   8.318475 H        1 UNL1     0.0280
     98 H         8.157547   1.081757   9.465911 H        1 UNL1     0.0280
     99 H         9.021186   1.597652   7.98682 H        1 UNL1     0.0280
     100 H         9.997453   -0.721404   8.263529 H        1 UNL1     0.2922
     101 H         -0.700471   -2.506176   4.694408 H        1 UNL1     0.0236
     102 H         0.201468   -2.885605   6.213816 H        1 UNL1     0.0236
     103 H         -0.362989   -4.144439   5.159197 H        1 UNL1     0.0236
     104 H         -0.802982   -3.328026   2.996843 H        1 UNL1     0.2098
     105 H         1.613938   -0.194802   0.606668 H        1 UNL1     0.0234
     106 H         0.656768   -1.556672   -0.041586 H        1 UNL1     0.0234
     107 H         0.0   0.0   -0.0 H        1 UNL1     0.0234
     108 H         0.928542   1.290256   3.550958 H        1 UNL1     0.2098
     109 H         2.739143   0.450041   1.864027 H        1 UNL1     0.0234
     110 H         2.926554   0.744201   0.105861 H        1 UNL1     0.0234
     111 H         4.041147   1.436009   1.231884 H        1 UNL1     0.0234
     112 H         -2.508742   2.502449   -2.147385 H        1 UNL1     0.0342
     113 H         -1.921635   3.264478   -0.626577 H        1 UNL1     0.0342
     114 H         -1.224843   3.72388   -2.182662 H        1 UNL1     0.0342
     115 H         -1.554782   4.169156   1.420124 H        1 UNL1     0.0234
     116 H         -2.090375   3.248251   2.829329 H        1 UNL1     0.0234
     117 H         -0.493865   4.020959   2.741444 H        1 UNL1     0.0234
     118 H         5.657197   2.982494   4.429873 H        1 UNL1     0.0309
     119 H         6.823716   1.626224   4.518349 H        1 UNL1     0.0309
     120 H         5.433627   1.575499   3.456634 H        1 UNL1     0.0309
     121 H         1.899353   4.422263   4.939827 H        1 UNL1     0.0524
     122 H         1.698993   5.595062   3.631677 H        1 UNL1     0.0524
     123 H         0.271653   5.033085   4.537561 H        1 UNL1     0.0524
@<TRIPOS>BOND
     1     1     2    1
     2     1    42    1
     3     2     3    2
     4     3     4    1
     5     4     5    2
     6     5     7    1
     7     6    75    1
     8     6    76    1
     9     6    77    1
    10     7     9   am
    11     9    10    1
    12    10    11    2
    13    10    43    1
    14    11    14    1
    15    11    15    1
    16    12    13   ar
    17    12    27   ar
    18    12    43    1
    19    13    14    1
    20    13    30   ar
    21    14    17    2
    22    15    16    1
    23    16    17    1
    24    16    18    1
    25    16    22    1
    26    18    19    1
    27    19    20    1
    28    20    21    1
    29    21    22    1
    30    23    24    1
    31    23    88    1
    32    23    89    1
    33    24    25    1
    34    24    26    1
    35    24    90    1
    36    25    91    1
    37    25    92    1
    38    25    93    1
    39    26    94    1
    40    26    95    1
    41    26    96    1
    42    27    28   ar
    43    28    29   ar
    44    29    30   ar
    45    29    31    1
    46    30    33    1
    47    31    32    1
    48    32    33    1
    49    32    35    1
    50    34    97    1
    51    34    98    1
    52    34    99    1
    53    35    61    1
    54    36    37    1
    55    36    60    1
    56    37    38    1
    57    38    39    1
    58    39    40    1
    59    40    41    1
    60    41    42    1
    61    45   100    1
    62    47   101    1
    63    47   102    1
    64    47   103    1
    65    48   104    1
    66    49   105    1
    67    49   106    1
    68    49   107    1
    69    50   108    1
    70    51    59    1
    71    52   109    1
    72    52   110    1
    73    52   111    1
    74    53    54    1
    75    54    55    2
    76    54    56    1
    77    56   112    1
    78    56   113    1
    79    56   114    1
    80    57   115    1
    81    57   116    1
    82    57   117    1
    83    58   118    1
    84    58   119    1
    85    58   120    1
    86    59   121    1
    87    59   122    1
    88    59   123    1
    89    60    61    2
    90     1    47    1
    91     1    62    1
    92     2    63    1
    93     3    64    1
    94     4    65    1
    95     5     6    1
    96     7     8    2
    97     9    78    1
    98    15    79    1
    99    18    80    1
   100    18    81    1
   101    19    82    1
   102    19    83    1
   103    20    23    1
   104    21    84    1
   105    21    85    1
   106    22    86    1
   107    22    87    1
   108    27    45    1
   109    28    34    1
   110    32    58    1
   111    33    46    2
   112    36    51    1
   113    36    66    1
   114    37    52    1
   115    37    67    1
   116    38    53    1
   117    38    68    1
   118    42    48    1
   119    42    72    1
   120    43    44    2
   121    60    73    1
   122    61    74    1
   123    39    69    1
   124    39    57    1
   125    40    70    1
   126    40    50    1
   127    41    71    1
   128    41    49    1
