@<TRIPOS>MOLECULE
*****
 123 128 0 0 0
SMALL
GASTEIGER

@<TRIPOS>ATOM
     1 C         3.744408   1.334913   -3.769505 C.3        1 UNL1     0.0009
     2 C         5.260314   0.789039   -4.686613 C.2        1 UNL1     -0.0787
     3 C         6.694562   0.830432   -4.87966 C.2        1 UNL1     -0.0649
     4 C         7.628064   -0.09512   -5.946564 C.2        1 UNL1     -0.0542
     5 C         8.930257   -0.572532   -6.23544 C.2        1 UNL1     0.0115
     6 C         10.430563   -0.439377   -5.855081 C.3        1 UNL1     -0.0348
     7 C         9.097122   -1.818983   -7.233189 C.2        1 UNL1     0.2441
     8 O         9.441231   -1.695429   -8.400601 O.2        1 UNL1     -0.2702
     9 N         9.076032   -3.078999   -6.61024 N.am        1 UNL1     -0.2772
     10 C         7.784575   -3.542775   -6.508397 C.2        1 UNL1     0.1049
     11 C         7.085007   -3.095992   -5.481162 C.2        1 UNL1     0.0801
     12 C         5.691015   -3.888874   -7.832994 C.ar        1 UNL1     0.0753
     13 C         5.004362   -3.206933   -6.778446 C.ar        1 UNL1     0.0305
     14 C         5.66012   -2.90533   -5.507986 C.2        1 UNL1     0.0924
     15 N         7.48666   -2.420226   -4.390958 N.pl3        1 UNL1     -0.3170
     16 C         6.364685   -2.324389   -3.495279 C.3        1 UNL1     0.1275
     17 N         5.155727   -2.375461   -4.397241 N.2        1 UNL1     -0.2557
     18 C         6.33289   -3.608092   -2.671387 C.3        1 UNL1     0.0016
     19 C         7.676251   -3.775142   -1.979242 C.3        1 UNL1     0.0026
     20 N         7.913472   -2.614545   -1.13203 N.3        1 UNL1     -0.3018
     21 C         7.900833   -1.325159   -1.826072 C.3        1 UNL1     0.0026
     22 C         6.540831   -1.176236   -2.51026 C.3        1 UNL1     0.0016
     23 C         9.012074   -2.807074   -0.206477 C.3        1 UNL1     0.0012
     24 C         8.628053   -3.822103   0.881641 C.3        1 UNL1     -0.0339
     25 C         9.280235   -3.474824   2.230015 C.3        1 UNL1     -0.0615
     26 C         7.116507   -3.913152   0.998771 C.3        1 UNL1     -0.0615
     27 C         5.026026   -4.279857   -8.992753 C.ar        1 UNL1     0.1347
     28 C         3.671925   -4.080159   -9.194203 C.ar        1 UNL1     0.0342
     29 C         3.026835   -3.363567   -8.163903 C.ar        1 UNL1     0.1435
     30 C         3.687897   -2.93379   -7.012596 C.ar        1 UNL1     0.0774
     31 O         1.687726   -3.185275   -8.161138 O.3        1 UNL1     -0.4436
     32 C         1.36724   -2.865636   -6.798789 C.3        1 UNL1     0.3143
     33 C         2.651905   -2.322337   -6.20661 C.2        1 UNL1     0.2504
     34 C         2.844413   -4.689749   -10.291346 C.3        1 UNL1     -0.0327
     35 O         0.429129   -1.782802   -6.824666 O.2        1 UNL1     -0.4528
     36 C         -1.723975   -2.197008   -3.726172 C.3        1 UNL1     0.0854
     37 C         -1.288278   -2.264058   -2.211842 C.3        1 UNL1     0.0236
     38 C         -2.006327   -1.196884   -1.254089 C.3        1 UNL1     0.1131
     39 C         -2.023742   0.332732   -1.656881 C.3        1 UNL1     0.0200
     40 C         -0.650159   1.063847   -2.257862 C.3        1 UNL1     0.0661
     41 C         0.897505   0.990969   -1.567184 C.3        1 UNL1     0.0091
     42 C         2.554164   1.006877   -2.354983 C.3        1 UNL1     0.0661
     43 C         7.114587   -4.245524   -7.612758 C.2        1 UNL1     0.2131
     44 O         7.687958   -5.132068   -8.219407 O.2        1 UNL1     -0.2851
     45 O         5.777559   -4.897904   -9.990076 O.3        1 UNL1     -0.5056
     46 O         2.788715   -1.542887   -5.290316 O.2        1 UNL1     -0.2836
     47 C         3.364646   2.785722   -4.17065 C.3        1 UNL1     -0.0566
     48 O         3.108273   2.028072   -1.43344 O.3        1 UNL1     -0.3909
     49 C         0.915382   -0.104226   -0.524245 C.3        1 UNL1     -0.0577
     50 O         -0.56293   0.892361   -3.658114 O.3        1 UNL1     -0.3910
     51 O         -2.547124   -1.109502   -4.082807 O.3        1 UNL1     -0.3753
     52 C         0.222712   -2.635403   -2.057045 C.3        1 UNL1     -0.0564
     53 O         -1.850656   -1.501162   0.207248 O.3        1 UNL1     -0.4608
     54 C         -1.675431   -0.571537   1.198724 C.2        1 UNL1     0.3042
     55 O         -1.025726   0.471561   1.138161 O.2        1 UNL1     -0.2512
     56 C         -2.429338   -0.887202   2.459158 C.3        1 UNL1     0.0332
     57 C         -3.408302   0.618781   -2.404775 C.3        1 UNL1     -0.0567
     58 C         1.024815   -4.204297   -6.104339 C.3        1 UNL1     0.0210
     59 C         -3.906555   -1.449568   -4.351447 C.3        1 UNL1     0.0372
     60 C         -0.603075   -2.225977   -4.704898 C.2        1 UNL1     -0.0208
     61 C         -0.388519   -1.488955   -5.795544 C.2        1 UNL1     0.0882
     62 H         3.145322   0.668449   -4.401669 H        1 UNL1     0.0365
     63 H         4.813468   0.174835   -5.471183 H        1 UNL1     0.0576
     64 H         7.347992   1.381602   -4.199698 H        1 UNL1     0.0615
     65 H         6.89072   -0.535478   -6.623242 H        1 UNL1     0.0622
     66 H         -2.292107   -3.123311   -3.891201 H        1 UNL1     0.0645
     67 H         -1.723195   -3.211731   -1.849455 H        1 UNL1     0.0362
     68 H         -3.049113   -1.535813   -1.350241 H        1 UNL1     0.0741
     69 H         -2.239967   0.922185   -0.775859 H        1 UNL1     0.0359
     70 H         -0.927042   2.127356   -2.126157 H        1 UNL1     0.0600
     71 H         0.867773   1.896731   -0.930263 H        1 UNL1     0.0348
     72 H         1.858985   1.415945   -3.102448 H        1 UNL1     0.0602
     73 H         0.022136   -3.058111   -4.495341 H        1 UNL1     0.0628
     74 H         -0.946635   -0.587325   -6.050115 H        1 UNL1     0.1022
     75 H         10.727385   0.63581   -5.801177 H        1 UNL1     0.0279
     76 H         10.717104   -0.810981   -4.87382 H        1 UNL1     0.0279
     77 H         11.103346   -0.81083   -6.641902 H        1 UNL1     0.0279
     78 H         9.448532   -3.000135   -5.666258 H        1 UNL1     0.1553
     79 H         8.438643   -2.387361   -4.075391 H        1 UNL1     0.1484
     80 H         5.513162   -3.546764   -1.945404 H        1 UNL1     0.0317
     81 H         6.124716   -4.475705   -3.306652 H        1 UNL1     0.0317
     82 H         8.493246   -3.910332   -2.703228 H        1 UNL1     0.0428
     83 H         7.632361   -4.697262   -1.398882 H        1 UNL1     0.0428
     84 H         8.001595   -0.465483   -1.156284 H        1 UNL1     0.0428
     85 H         8.748475   -1.225057   -2.518025 H        1 UNL1     0.0428
     86 H         6.517574   -0.172748   -2.892958 H        1 UNL1     0.0317
     87 H         5.74123   -1.180117   -1.759447 H        1 UNL1     0.0317
     88 H         9.866979   -3.204471   -0.769067 H        1 UNL1     0.0429
     89 H         9.332585   -1.854905   0.235586 H        1 UNL1     0.0429
     90 H         8.965529   -4.819931   0.577234 H        1 UNL1     0.0308
     91 H         9.173228   -2.410784   2.461253 H        1 UNL1     0.0233
     92 H         8.836859   -4.063469   3.036565 H        1 UNL1     0.0233
     93 H         10.354146   -3.696982   2.244019 H        1 UNL1     0.0233
     94 H         6.792684   -3.567233   1.986351 H        1 UNL1     0.0233
     95 H         6.644349   -3.275052   0.246536 H        1 UNL1     0.0233
     96 H         6.766681   -4.940021   0.860461 H        1 UNL1     0.0233
     97 H         2.024082   -5.284366   -9.900553 H        1 UNL1     0.0280
     98 H         2.383974   -3.928211   -10.93424 H        1 UNL1     0.0280
     99 H         3.478931   -5.342547   -10.912906 H        1 UNL1     0.0280
     100 H         6.571792   -4.447379   -10.217769 H        1 UNL1     0.2922
     101 H         2.321328   2.975506   -3.919402 H        1 UNL1     0.0236
     102 H         3.581956   3.01284   -5.213807 H        1 UNL1     0.0236
     103 H         3.932021   3.536393   -3.595523 H        1 UNL1     0.0236
     104 H         2.397847   2.672212   -1.24543 H        1 UNL1     0.2098
     105 H         0.952804   -1.111528   -0.931374 H        1 UNL1     0.0234
     106 H         1.671142   0.018005   0.251521 H        1 UNL1     0.0234
     107 H         0.0   0.0   0.0 H        1 UNL1     0.0234
     108 H         0.346934   1.128306   -3.923153 H        1 UNL1     0.2098
     109 H         0.455203   -3.619941   -2.486399 H        1 UNL1     0.0234
     110 H         0.896462   -1.882686   -2.480389 H        1 UNL1     0.0234
     111 H         0.518942   -2.69411   -1.001229 H        1 UNL1     0.0234
     112 H         -2.32961   -1.950835   2.695982 H        1 UNL1     0.0342
     113 H         -2.106395   -0.268803   3.2953 H        1 UNL1     0.0342
     114 H         -3.493851   -0.679699   2.283321 H        1 UNL1     0.0342
     115 H         -3.774514   1.636392   -2.211006 H        1 UNL1     0.0234
     116 H         -3.363538   0.486551   -3.487623 H        1 UNL1     0.0234
     117 H         -4.24816   0.013613   -2.022215 H        1 UNL1     0.0234
     118 H         -0.048236   -4.279723   -5.855584 H        1 UNL1     0.0309
     119 H         1.318846   -5.080273   -6.691208 H        1 UNL1     0.0309
     120 H         1.517656   -4.311476   -5.131854 H        1 UNL1     0.0309
     121 H         -4.007668   -1.577585   -5.428825 H        1 UNL1     0.0524
     122 H         -4.202256   -2.399149   -3.875112 H        1 UNL1     0.0524
     123 H         -4.567135   -0.660196   -4.004142 H        1 UNL1     0.0524
@<TRIPOS>BOND
     1     1     2    1
     2     1    42    1
     3     2     3    2
     4     3     4    1
     5     4     5    2
     6     5     7    1
     7     6    75    1
     8     6    76    1
     9     6    77    1
    10     7     9   am
    11     9    10    1
    12    10    11    2
    13    10    43    1
    14    11    14    1
    15    11    15    1
    16    12    13   ar
    17    12    27   ar
    18    12    43    1
    19    13    14    1
    20    13    30   ar
    21    14    17    2
    22    15    16    1
    23    16    17    1
    24    16    18    1
    25    16    22    1
    26    18    19    1
    27    19    20    1
    28    20    21    1
    29    21    22    1
    30    23    24    1
    31    23    88    1
    32    23    89    1
    33    24    25    1
    34    24    26    1
    35    24    90    1
    36    25    91    1
    37    25    92    1
    38    25    93    1
    39    26    94    1
    40    26    95    1
    41    26    96    1
    42    27    28   ar
    43    28    29   ar
    44    29    30   ar
    45    29    31    1
    46    30    33    1
    47    31    32    1
    48    32    33    1
    49    32    35    1
    50    34    97    1
    51    34    98    1
    52    34    99    1
    53    35    61    1
    54    36    37    1
    55    36    60    1
    56    37    38    1
    57    38    39    1
    58    39    40    1
    59    40    41    1
    60    41    42    1
    61    45   100    1
    62    47   101    1
    63    47   102    1
    64    47   103    1
    65    48   104    1
    66    49   105    1
    67    49   106    1
    68    49   107    1
    69    50   108    1
    70    51    59    1
    71    52   109    1
    72    52   110    1
    73    52   111    1
    74    53    54    1
    75    54    55    2
    76    54    56    1
    77    56   112    1
    78    56   113    1
    79    56   114    1
    80    57   115    1
    81    57   116    1
    82    57   117    1
    83    58   118    1
    84    58   119    1
    85    58   120    1
    86    59   121    1
    87    59   122    1
    88    59   123    1
    89    60    61    2
    90     1    47    1
    91     1    62    1
    92     2    63    1
    93     3    64    1
    94     4    65    1
    95     5     6    1
    96     7     8    2
    97     9    78    1
    98    15    79    1
    99    18    80    1
   100    18    81    1
   101    19    82    1
   102    19    83    1
   103    20    23    1
   104    21    84    1
   105    21    85    1
   106    22    86    1
   107    22    87    1
   108    27    45    1
   109    28    34    1
   110    32    58    1
   111    33    46    2
   112    36    51    1
   113    36    66    1
   114    37    52    1
   115    37    67    1
   116    38    53    1
   117    38    68    1
   118    42    48    1
   119    42    72    1
   120    43    44    2
   121    60    73    1
   122    61    74    1
   123    39    69    1
   124    39    57    1
   125    40    70    1
   126    40    50    1
   127    41    71    1
   128    41    49    1
