@<TRIPOS>MOLECULE
*****
 123 128 0 0 0
SMALL
GASTEIGER

@<TRIPOS>ATOM
     1 C         5.178421   1.723286   0.45602 C.3        1 UNL1     0.0009
     2 C         6.617515   2.511769   -0.406731 C.2        1 UNL1     -0.0787
     3 C         7.895548   2.398587   -1.077452 C.2        1 UNL1     -0.0649
     4 C         8.779222   3.621165   -1.846075 C.2        1 UNL1     -0.0542
     5 C         9.797242   3.898848   -2.791382 C.2        1 UNL1     0.0115
     6 C         10.916556   3.25818   -3.65741 C.3        1 UNL1     -0.0348
     7 C         9.901463   5.376804   -3.409259 C.2        1 UNL1     0.2441
     8 O         10.733475   6.19469   -3.041367 O.2        1 UNL1     -0.2702
     9 N         9.147582   5.581058   -4.57806 N.am        1 UNL1     -0.2772
     10 C         7.869379   5.980134   -4.261427 C.2        1 UNL1     0.1049
     11 C         7.01733   5.017591   -3.958531 C.2        1 UNL1     0.0801
     12 C         6.590053   7.607305   -2.856802 C.ar        1 UNL1     0.0753
     13 C         5.824206   6.48873   -2.397588 C.ar        1 UNL1     0.0305
     14 C         5.927956   5.177434   -3.033819 C.2        1 UNL1     0.0924
     15 N         7.128793   3.686553   -4.108337 N.pl3        1 UNL1     -0.3170
     16 C         5.85571   3.099738   -3.784051 C.3        1 UNL1     0.1275
     17 N         5.231282   4.067143   -2.808377 N.2        1 UNL1     -0.2557
     18 C         4.997624   3.156227   -5.044288 C.3        1 UNL1     0.0016
     19 C         5.741981   2.45792   -6.171182 C.3        1 UNL1     0.0026
     20 N         6.003049   1.080609   -5.776358 N.3        1 UNL1     -0.3018
     21 C         6.770742   0.923328   -4.539314 C.3        1 UNL1     0.0026
     22 C         6.002537   1.628195   -3.419975 C.3        1 UNL1     0.0016
     23 C         6.436068   0.249449   -6.88194 C.3        1 UNL1     0.0012
     24 C         5.274254   0.001867   -7.856952 C.3        1 UNL1     -0.0339
     25 C         5.628967   0.457924   -9.281819 C.3        1 UNL1     -0.0615
     26 C         4.868759   -1.461419   -7.823046 C.3        1 UNL1     -0.0615
     27 C         6.3978   8.880509   -2.325664 C.ar        1 UNL1     0.1347
     28 C         5.445255   9.164666   -1.363394 C.ar        1 UNL1     0.0342
     29 C         4.73691   8.0392   -0.891443 C.ar        1 UNL1     0.1435
     30 C         4.943988   6.751798   -1.388367 C.ar        1 UNL1     0.0774
     31 O         3.700729   8.167247   -0.034157 O.3        1 UNL1     -0.4436
     32 C         2.96876   6.93914   -0.163956 C.3        1 UNL1     0.3143
     33 C         3.971805   5.934188   -0.693284 C.2        1 UNL1     0.2504
     34 C         5.011158   10.537457   -0.930836 C.3        1 UNL1     -0.0327
     35 O         2.610693   6.514999   1.157083 O.2        1 UNL1     -0.4528
     36 C         -0.649187   4.605564   0.789214 C.3        1 UNL1     0.0854
     37 C         -0.968453   3.34085   -0.097404 C.3        1 UNL1     0.0236
     38 C         -1.575298   2.090416   0.702532 C.3        1 UNL1     0.1131
     39 C         -0.847819   1.563379   2.00456 C.3        1 UNL1     0.0200
     40 C         0.81235   1.405053   2.039346 C.3        1 UNL1     0.0661
     41 C         1.76033   0.620096   0.871962 C.3        1 UNL1     0.0091
     42 C         3.468128   0.965018   0.297628 C.3        1 UNL1     0.0661
     43 C         7.533328   7.383868   -3.980443 C.2        1 UNL1     0.2131
     44 O         7.936975   8.273448   -4.707391 O.2        1 UNL1     -0.2851
     45 O         7.216072   9.905776   -2.795448 O.3        1 UNL1     -0.5056
     46 O         3.978942   4.731562   -0.553671 O.2        1 UNL1     -0.2836
     47 C         5.577939   1.301309   1.89557 C.3        1 UNL1     -0.0566
     48 O         3.905969   -0.448938   0.387846 O.3        1 UNL1     -0.3909
     49 C         0.91871   0.384955   -0.362493 C.3        1 UNL1     -0.0577
     50 O         1.42387   2.621009   2.42042 O.3        1 UNL1     -0.3910
     51 O         -0.768427   4.427136   2.182547 O.3        1 UNL1     -0.3753
     52 C         0.069455   3.163658   -1.253388 C.3        1 UNL1     -0.0564
     53 O         -2.190126   1.049609   -0.186868 O.3        1 UNL1     -0.4608
     54 C         -2.40215   -0.261183   0.151952 C.2        1 UNL1     0.3042
     55 O         -1.737074   -1.23807   -0.1904 O.2        1 UNL1     -0.2512
     56 C         -3.556377   -0.460058   1.092656 C.3        1 UNL1     0.0332
     57 C         -1.557825   2.247318   3.264041 C.3        1 UNL1     -0.0567
     58 C         1.890599   7.184698   -1.245065 C.3        1 UNL1     0.0210
     59 C         -1.068987   5.613999   2.915271 C.3        1 UNL1     0.0372
     60 C         0.683643   5.222432   0.547972 C.2        1 UNL1     -0.0208
     61 C         1.603916   5.656855   1.410016 C.2        1 UNL1     0.0882
     62 H         4.710644   2.711797   0.53813 H        1 UNL1     0.0365
     63 H         6.360031   3.568382   -0.308044 H        1 UNL1     0.0576
     64 H         8.344586   1.426555   -1.293383 H        1 UNL1     0.0615
     65 H         8.300926   4.542907   -1.503865 H        1 UNL1     0.0622
     66 H         -1.389358   5.355631   0.476818 H        1 UNL1     0.0645
     67 H         -1.834321   3.652512   -0.707075 H        1 UNL1     0.0362
     68 H         -2.517297   2.537329   1.055277 H        1 UNL1     0.0741
     69 H         -1.186376   0.556396   2.208941 H        1 UNL1     0.0359
     70 H         0.922951   0.750381   2.924915 H        1 UNL1     0.0600
     71 H         1.797839   -0.398204   1.306263 H        1 UNL1     0.0348
     72 H         3.370548   1.461258   1.274121 H        1 UNL1     0.0602
     73 H         0.798359   5.411091   -0.490535 H        1 UNL1     0.0628
     74 H         1.589592   5.454236   2.481454 H        1 UNL1     0.1022
     75 H         10.901514   2.146068   -3.557336 H        1 UNL1     0.0279
     76 H         10.837354   3.397672   -4.733206 H        1 UNL1     0.0279
     77 H         11.926078   3.495205   -3.290824 H        1 UNL1     0.0279
     78 H         9.076361   4.707775   -5.096116 H        1 UNL1     0.1553
     79 H         7.787861   3.248784   -4.725525 H        1 UNL1     0.1484
     80 H         4.033412   2.674335   -4.842194 H        1 UNL1     0.0317
     81 H         4.77793   4.192706   -5.321951 H        1 UNL1     0.0317
     82 H         6.675647   2.980021   -6.427288 H        1 UNL1     0.0428
     83 H         5.113223   2.511407   -7.06048 H        1 UNL1     0.0428
     84 H         6.884277   -0.11823   -4.222961 H        1 UNL1     0.0428
     85 H         7.803209   1.282449   -4.650494 H        1 UNL1     0.0428
     86 H         6.521113   1.380477   -2.512394 H        1 UNL1     0.0317
     87 H         5.019952   1.159233   -3.286939 H        1 UNL1     0.0317
     88 H         7.233949   0.781043   -7.416812 H        1 UNL1     0.0429
     89 H         6.862818   -0.697089   -6.525957 H        1 UNL1     0.0429
     90 H         4.39567   0.564051   -7.518937 H        1 UNL1     0.0308
     91 H         6.625347   0.112585   -9.573489 H        1 UNL1     0.0233
     92 H         4.895514   0.085066   -10.000591 H        1 UNL1     0.0233
     93 H         5.628505   1.54998   -9.383051 H        1 UNL1     0.0233
     94 H         4.258074   -1.704525   -8.699287 H        1 UNL1     0.0233
     95 H         5.758834   -2.096409   -7.84578 H        1 UNL1     0.0233
     96 H         4.291512   -1.694811   -6.924 H        1 UNL1     0.0233
     97 H         4.166044   10.501852   -0.249849 H        1 UNL1     0.0280
     98 H         5.805951   11.073357   -0.3957 H        1 UNL1     0.0280
     99 H         4.71814   11.127436   -1.814669 H        1 UNL1     0.0280
     100 H         6.757312   10.686212   -3.052512 H        1 UNL1     0.2922
     101 H         4.692005   0.983019   2.444632 H        1 UNL1     0.0236
     102 H         6.135018   2.070918   2.428813 H        1 UNL1     0.0236
     103 H         6.241333   0.420353   1.899823 H        1 UNL1     0.0236
     104 H         4.240321   -0.596924   1.294091 H        1 UNL1     0.2098
     105 H         0.70043   1.28297   -0.934973 H        1 UNL1     0.0234
     106 H         1.285585   -0.402668   -1.020506 H        1 UNL1     0.0234
     107 H         0.0   -0.0   0.0 H        1 UNL1     0.0234
     108 H         1.281052   3.257749   1.69383 H        1 UNL1     0.2098
     109 H         1.096635   3.057296   -0.87749 H        1 UNL1     0.0234
     110 H         -0.165932   2.325807   -1.918475 H        1 UNL1     0.0234
     111 H         0.085737   4.036217   -1.919963 H        1 UNL1     0.0234
     112 H         -3.657557   -1.521525   1.338412 H        1 UNL1     0.0342
     113 H         -3.458066   0.142162   1.994604 H        1 UNL1     0.0342
     114 H         -4.47527   -0.14401   0.579906 H        1 UNL1     0.0342
     115 H         -2.647305   2.106396   3.245029 H        1 UNL1     0.0234
     116 H         -1.196595   1.884605   4.228408 H        1 UNL1     0.0234
     117 H         -1.485389   3.348541   3.265527 H        1 UNL1     0.0234
     118 H         0.99337   7.677516   -0.831401 H        1 UNL1     0.0309
     119 H         2.259461   7.767401   -2.095124 H        1 UNL1     0.0309
     120 H         1.496094   6.252782   -1.664594 H        1 UNL1     0.0309
     121 H         -0.69297   5.479653   3.929135 H        1 UNL1     0.0524
     122 H         -0.57309   6.503573   2.492447 H        1 UNL1     0.0524
     123 H         -2.141886   5.783339   2.932769 H        1 UNL1     0.0524
@<TRIPOS>BOND
     1     1     2    1
     2     1    42    1
     3     2     3    2
     4     3     4    1
     5     4     5    2
     6     5     7    1
     7     6    75    1
     8     6    76    1
     9     6    77    1
    10     7     9   am
    11     9    10    1
    12    10    11    2
    13    10    43    1
    14    11    14    1
    15    11    15    1
    16    12    13   ar
    17    12    27   ar
    18    12    43    1
    19    13    14    1
    20    13    30   ar
    21    14    17    2
    22    15    16    1
    23    16    17    1
    24    16    18    1
    25    16    22    1
    26    18    19    1
    27    19    20    1
    28    20    21    1
    29    21    22    1
    30    23    24    1
    31    23    88    1
    32    23    89    1
    33    24    25    1
    34    24    26    1
    35    24    90    1
    36    25    91    1
    37    25    92    1
    38    25    93    1
    39    26    94    1
    40    26    95    1
    41    26    96    1
    42    27    28   ar
    43    28    29   ar
    44    29    30   ar
    45    29    31    1
    46    30    33    1
    47    31    32    1
    48    32    33    1
    49    32    35    1
    50    34    97    1
    51    34    98    1
    52    34    99    1
    53    35    61    1
    54    36    37    1
    55    36    60    1
    56    37    38    1
    57    38    39    1
    58    39    40    1
    59    40    41    1
    60    41    42    1
    61    45   100    1
    62    47   101    1
    63    47   102    1
    64    47   103    1
    65    48   104    1
    66    49   105    1
    67    49   106    1
    68    49   107    1
    69    50   108    1
    70    51    59    1
    71    52   109    1
    72    52   110    1
    73    52   111    1
    74    53    54    1
    75    54    55    2
    76    54    56    1
    77    56   112    1
    78    56   113    1
    79    56   114    1
    80    57   115    1
    81    57   116    1
    82    57   117    1
    83    58   118    1
    84    58   119    1
    85    58   120    1
    86    59   121    1
    87    59   122    1
    88    59   123    1
    89    60    61    2
    90     1    47    1
    91     1    62    1
    92     2    63    1
    93     3    64    1
    94     4    65    1
    95     5     6    1
    96     7     8    2
    97     9    78    1
    98    15    79    1
    99    18    80    1
   100    18    81    1
   101    19    82    1
   102    19    83    1
   103    20    23    1
   104    21    84    1
   105    21    85    1
   106    22    86    1
   107    22    87    1
   108    27    45    1
   109    28    34    1
   110    32    58    1
   111    33    46    2
   112    36    51    1
   113    36    66    1
   114    37    52    1
   115    37    67    1
   116    38    53    1
   117    38    68    1
   118    42    48    1
   119    42    72    1
   120    43    44    2
   121    60    73    1
   122    61    74    1
   123    39    69    1
   124    39    57    1
   125    40    70    1
   126    40    50    1
   127    41    71    1
   128    41    49    1
