@<TRIPOS>MOLECULE
*****
 123 128 0 0 0
SMALL
GASTEIGER

@<TRIPOS>ATOM
     1 C         -0.055675   -4.433277   -3.210114 C.3        1 UNL1     0.0009
     2 C         -0.231687   -5.056405   -4.947287 C.2        1 UNL1     -0.0787
     3 C         -1.018433   -5.703919   -5.975782 C.2        1 UNL1     -0.0649
     4 C         -0.626218   -5.912057   -7.609552 C.2        1 UNL1     -0.0542
     5 C         -1.141869   -6.170016   -8.90363 C.2        1 UNL1     0.0115
     6 C         -2.412522   -6.599566   -9.687372 C.3        1 UNL1     -0.0348
     7 C         -0.237274   -5.823328   -10.183671 C.2        1 UNL1     0.2441
     8 O         0.371728   -6.673696   -10.818114 O.2        1 UNL1     -0.2702
     9 N         -0.39921   -4.519492   -10.683612 N.am        1 UNL1     -0.2772
     10 C         0.457507   -3.651202   -10.046877 C.2        1 UNL1     0.1049
     11 C         0.051625   -3.183922   -8.880202 C.2        1 UNL1     0.0801
     12 C         2.849362   -3.360864   -9.374518 C.ar        1 UNL1     0.0753
     13 C         2.362525   -3.062177   -8.062121 C.ar        1 UNL1     0.0305
     14 C         0.941888   -2.835565   -7.806212 C.2        1 UNL1     0.0924
     15 N         -1.157524   -3.24911   -8.296902 N.pl3        1 UNL1     -0.3170
     16 C         -1.117548   -2.435816   -7.110643 C.3        1 UNL1     0.1275
     17 N         0.331005   -2.455699   -6.68753 N.2        1 UNL1     -0.2557
     18 C         -1.414868   -1.001066   -7.535843 C.3        1 UNL1     0.0016
     19 C         -2.746689   -0.977132   -8.26883 C.3        1 UNL1     0.0026
     20 N         -3.780522   -1.484295   -7.377201 N.3        1 UNL1     -0.3018
     21 C         -3.55134   -2.837035   -6.865402 C.3        1 UNL1     0.0026
     22 C         -2.21064   -2.836934   -6.12891 C.3        1 UNL1     0.0016
     23 C         -5.121156   -1.22703   -7.86419 C.3        1 UNL1     0.0012
     24 C         -5.11987   -1.082021   -9.394134 C.3        1 UNL1     -0.0339
     25 C         -5.137804   -2.453469   -10.089018 C.3        1 UNL1     -0.0615
     26 C         -6.286735   -0.216098   -9.836155 C.3        1 UNL1     -0.0615
     27 C         4.214632   -3.456124   -9.633521 C.ar        1 UNL1     0.1347
     28 C         5.185728   -3.23467   -8.673323 C.ar        1 UNL1     0.0342
     29 C         4.682304   -2.990311   -7.37794 C.ar        1 UNL1     0.1435
     30 C         3.317075   -2.92774   -7.09606 C.ar        1 UNL1     0.0774
     31 O         5.498631   -2.64706   -6.357747 O.3        1 UNL1     -0.4436
     32 C         4.632178   -2.036297   -5.389707 C.3        1 UNL1     0.3143
     33 C         3.25242   -2.585869   -5.69046 C.2        1 UNL1     0.2504
     34 C         6.658103   -3.071773   -8.929593 C.3        1 UNL1     -0.0327
     35 O         5.010118   -2.539358   -4.102329 O.2        1 UNL1     -0.4528
     36 C         4.207635   0.225177   -1.628171 C.3        1 UNL1     0.0854
     37 C         2.831469   0.942951   -1.348013 C.3        1 UNL1     0.0236
     38 C         2.349622   0.907344   0.181137 C.3        1 UNL1     0.1131
     39 C         2.314252   -0.468257   0.961357 C.3        1 UNL1     0.0200
     40 C         1.711577   -1.840078   0.228331 C.3        1 UNL1     0.0661
     41 C         0.22882   -1.961373   -0.586732 C.3        1 UNL1     0.0091
     42 C         -0.258063   -2.991663   -2.024387 C.3        1 UNL1     0.0661
     43 C         1.855069   -3.477534   -10.469976 C.2        1 UNL1     0.2131
     44 O         2.131417   -3.337105   -11.647537 O.2        1 UNL1     -0.2851
     45 O         4.60357   -3.795457   -10.927746 O.3        1 UNL1     -0.5056
     46 O         2.317509   -2.729908   -4.934783 O.2        1 UNL1     -0.2836
     47 C         0.157614   -5.618898   -2.230935 C.3        1 UNL1     -0.0566
     48 O         -1.518379   -3.465424   -1.40288 O.3        1 UNL1     -0.3909
     49 C         -0.303359   -0.568758   -0.841491 C.3        1 UNL1     -0.0577
     50 O         2.722207   -2.500932   -0.506259 O.3        1 UNL1     -0.3910
     51 O         4.753715   -0.501975   -0.550916 O.3        1 UNL1     -0.3753
     52 C         1.832486   0.77077   -2.538533 C.3        1 UNL1     -0.0564
     53 O         1.244924   1.876555   0.485436 O.3        1 UNL1     -0.4608
     54 C         0.8323   2.243692   1.739582 C.2        1 UNL1     0.3042
     55 O         0.644926   1.509486   2.708948 O.2        1 UNL1     -0.2512
     56 C         0.658586   3.726602   1.905453 C.3        1 UNL1     0.0332
     57 C         3.686783   -0.598259   1.772179 C.3        1 UNL1     -0.0567
     58 C         4.641289   -0.519303   -5.689997 C.3        1 UNL1     0.0210
     59 C         6.10406   -0.9241   -0.735967 C.3        1 UNL1     0.0372
     60 C         4.214364   -0.683664   -2.806782 C.2        1 UNL1     -0.0208
     61 C         4.712753   -1.912669   -2.94785 C.2        1 UNL1     0.0882
     62 H         0.941606   -4.056129   -3.466827 H        1 UNL1     0.0365
     63 H         0.768234   -4.856   -5.337756 H        1 UNL1     0.0576
     64 H         -2.05984   -5.986818   -5.806823 H        1 UNL1     0.0615
     65 H         0.441762   -5.681728   -7.652566 H        1 UNL1     0.0622
     66 H         4.900219   1.042472   -1.87394 H        1 UNL1     0.0645
     67 H         3.056189   2.015332   -1.4824 H        1 UNL1     0.0362
     68 H         3.164406   1.484573   0.644231 H        1 UNL1     0.0741
     69 H         1.674021   -0.361128   1.826825 H        1 UNL1     0.0359
     70 H         1.554342   -2.478592   1.118634 H        1 UNL1     0.0600
     71 H         -0.422483   -2.293763   0.245301 H        1 UNL1     0.0348
     72 H         0.64479   -3.460707   -1.607052 H        1 UNL1     0.0602
     73 H         3.845997   -0.15999   -3.653729 H        1 UNL1     0.0628
     74 H         5.05562   -2.537542   -2.122493 H        1 UNL1     0.1022
     75 H         -3.218372   -6.918451   -8.983134 H        1 UNL1     0.0279
     76 H         -2.905524   -5.82697   -10.273132 H        1 UNL1     0.0279
     77 H         -2.260641   -7.517953   -10.273203 H        1 UNL1     0.0279
     78 H         -1.348735   -4.199776   -10.504003 H        1 UNL1     0.1553
     79 H         -2.00673   -3.442121   -8.795428 H        1 UNL1     0.1484
     80 H         -1.436282   -0.361391   -6.645269 H        1 UNL1     0.0317
     81 H         -0.62084   -0.611986   -8.182207 H        1 UNL1     0.0317
     82 H         -2.708461   -1.558583   -9.201764 H        1 UNL1     0.0428
     83 H         -2.938352   0.05477   -8.564625 H        1 UNL1     0.0428
     84 H         -4.300098   -3.163051   -6.136783 H        1 UNL1     0.0428
     85 H         -3.608927   -3.59094   -7.662665 H        1 UNL1     0.0428
     86 H         -2.139286   -3.799469   -5.657292 H        1 UNL1     0.0317
     87 H         -2.248593   -2.141368   -5.281653 H        1 UNL1     0.0317
     88 H         -5.752626   -2.083771   -7.594867 H        1 UNL1     0.0429
     89 H         -5.557271   -0.342175   -7.382932 H        1 UNL1     0.0429
     90 H         -4.214892   -0.545716   -9.703337 H        1 UNL1     0.0308
     91 H         -5.845693   -3.13436   -9.606958 H        1 UNL1     0.0233
     92 H         -5.402577   -2.34866   -11.143779 H        1 UNL1     0.0233
     93 H         -4.157904   -2.945561   -10.067162 H        1 UNL1     0.0233
     94 H         -6.976112   -0.799166   -10.456339 H        1 UNL1     0.0233
     95 H         -6.839089   0.140936   -8.96243 H        1 UNL1     0.0233
     96 H         -5.946365   0.646794   -10.415408 H        1 UNL1     0.0233
     97 H         6.854203   -2.550412   -9.861773 H        1 UNL1     0.0280
     98 H         7.151823   -2.482339   -8.145971 H        1 UNL1     0.0280
     99 H         7.13565   -4.063918   -8.98148 H        1 UNL1     0.0280
     100 H         4.937148   -3.077917   -11.437142 H        1 UNL1     0.2922
     101 H         -0.784329   -6.146158   -2.081277 H        1 UNL1     0.0236
     102 H         0.612902   -5.319176   -1.28761 H        1 UNL1     0.0236
     103 H         0.841381   -6.379222   -2.643927 H        1 UNL1     0.0236
     104 H         -1.416589   -4.420046   -1.220382 H        1 UNL1     0.2098
     105 H         0.099941   -0.089423   -1.729972 H        1 UNL1     0.0234
     106 H         -1.390143   -0.487146   -0.828549 H        1 UNL1     0.0234
     107 H         0.0   0.0   0.0 H        1 UNL1     0.0234
     108 H         2.633689   -3.456738   -0.326347 H        1 UNL1     0.2098
     109 H         2.254556   1.123251   -3.490019 H        1 UNL1     0.0234
     110 H         1.474966   -0.257992   -2.655029 H        1 UNL1     0.0234
     111 H         0.915645   1.355472   -2.385327 H        1 UNL1     0.0234
     112 H         1.618206   4.18777   2.158037 H        1 UNL1     0.0342
     113 H         0.223448   4.189438   1.020987 H        1 UNL1     0.0342
     114 H         -0.02945   3.899732   2.74438 H        1 UNL1     0.0342
     115 H         3.827862   0.236269   2.472783 H        1 UNL1     0.0234
     116 H         3.779609   -1.524812   2.342207 H        1 UNL1     0.0234
     117 H         4.583939   -0.497587   1.137421 H        1 UNL1     0.0234
     118 H         5.4778   -0.002312   -5.188025 H        1 UNL1     0.0309
     119 H         4.671466   -0.293448   -6.760643 H        1 UNL1     0.0309
     120 H         3.75591   -0.007675   -5.297 H        1 UNL1     0.0309
     121 H         6.081284   -1.946841   -1.11125 H        1 UNL1     0.0524
     122 H         6.636357   -0.309048   -1.480553 H        1 UNL1     0.0524
     123 H         6.643325   -0.882445   0.206133 H        1 UNL1     0.0524
@<TRIPOS>BOND
     1     1     2    1
     2     1    42    1
     3     2     3    2
     4     3     4    1
     5     4     5    2
     6     5     7    1
     7     6    75    1
     8     6    76    1
     9     6    77    1
    10     7     9   am
    11     9    10    1
    12    10    11    2
    13    10    43    1
    14    11    14    1
    15    11    15    1
    16    12    13   ar
    17    12    27   ar
    18    12    43    1
    19    13    14    1
    20    13    30   ar
    21    14    17    2
    22    15    16    1
    23    16    17    1
    24    16    18    1
    25    16    22    1
    26    18    19    1
    27    19    20    1
    28    20    21    1
    29    21    22    1
    30    23    24    1
    31    23    88    1
    32    23    89    1
    33    24    25    1
    34    24    26    1
    35    24    90    1
    36    25    91    1
    37    25    92    1
    38    25    93    1
    39    26    94    1
    40    26    95    1
    41    26    96    1
    42    27    28   ar
    43    28    29   ar
    44    29    30   ar
    45    29    31    1
    46    30    33    1
    47    31    32    1
    48    32    33    1
    49    32    35    1
    50    34    97    1
    51    34    98    1
    52    34    99    1
    53    35    61    1
    54    36    37    1
    55    36    60    1
    56    37    38    1
    57    38    39    1
    58    39    40    1
    59    40    41    1
    60    41    42    1
    61    45   100    1
    62    47   101    1
    63    47   102    1
    64    47   103    1
    65    48   104    1
    66    49   105    1
    67    49   106    1
    68    49   107    1
    69    50   108    1
    70    51    59    1
    71    52   109    1
    72    52   110    1
    73    52   111    1
    74    53    54    1
    75    54    55    2
    76    54    56    1
    77    56   112    1
    78    56   113    1
    79    56   114    1
    80    57   115    1
    81    57   116    1
    82    57   117    1
    83    58   118    1
    84    58   119    1
    85    58   120    1
    86    59   121    1
    87    59   122    1
    88    59   123    1
    89    60    61    2
    90     1    47    1
    91     1    62    1
    92     2    63    1
    93     3    64    1
    94     4    65    1
    95     5     6    1
    96     7     8    2
    97     9    78    1
    98    15    79    1
    99    18    80    1
   100    18    81    1
   101    19    82    1
   102    19    83    1
   103    20    23    1
   104    21    84    1
   105    21    85    1
   106    22    86    1
   107    22    87    1
   108    27    45    1
   109    28    34    1
   110    32    58    1
   111    33    46    2
   112    36    51    1
   113    36    66    1
   114    37    52    1
   115    37    67    1
   116    38    53    1
   117    38    68    1
   118    42    48    1
   119    42    72    1
   120    43    44    2
   121    60    73    1
   122    61    74    1
   123    39    69    1
   124    39    57    1
   125    40    70    1
   126    40    50    1
   127    41    71    1
   128    41    49    1
