@<TRIPOS>MOLECULE
*****
 123 128 0 0 0
SMALL
GASTEIGER

@<TRIPOS>ATOM
     1 C         3.890238   -0.750324   1.303332 C.3        1 UNL1     0.0009
     2 C         5.336968   -1.283441   0.273868 C.2        1 UNL1     -0.0787
     3 C         6.233803   -2.320748   -0.190597 C.2        1 UNL1     -0.0649
     4 C         7.44551   -2.198849   -1.366719 C.2        1 UNL1     -0.0542
     5 C         8.265575   -2.921462   -2.268053 C.2        1 UNL1     0.0115
     6 C         8.727844   -4.346091   -2.680439 C.3        1 UNL1     -0.0348
     7 C         8.974364   -2.135013   -3.474745 C.2        1 UNL1     0.2441
     8 O         10.155878   -1.818281   -3.459549 O.2        1 UNL1     -0.2702
     9 N         8.217312   -2.064735   -4.657152 N.am        1 UNL1     -0.2772
     10 C         7.395915   -0.961012   -4.636547 C.2        1 UNL1     0.1049
     11 C         6.252446   -1.098447   -3.990162 C.2        1 UNL1     0.0801
     12 C         7.392991   1.501462   -4.19661 C.ar        1 UNL1     0.0753
     13 C         6.27415   1.266941   -3.33533 C.ar        1 UNL1     0.0305
     14 C         5.586576   -0.022068   -3.30796 C.2        1 UNL1     0.0924
     15 N         5.65378   -2.206087   -3.51978 N.pl3        1 UNL1     -0.3170
     16 C         4.345974   -1.832943   -3.050033 C.3        1 UNL1     0.1275
     17 N         4.486022   -0.383279   -2.654328 N.2        1 UNL1     -0.2557
     18 C         3.409713   -1.854603   -4.254462 C.3        1 UNL1     0.0016
     19 C         3.476726   -3.230517   -4.897858 C.3        1 UNL1     0.0026
     20 N         3.084723   -4.227733   -3.911489 N.3        1 UNL1     -0.3018
     21 C         3.889844   -4.242432   -2.688406 C.3        1 UNL1     0.0026
     22 C         3.80451   -2.85212   -2.05623 C.3        1 UNL1     0.0016
     23 C         2.826229   -5.528349   -4.496487 C.3        1 UNL1     0.0012
     24 C         3.055336   -5.490801   -6.01565 C.3        1 UNL1     -0.0339
     25 C         3.036463   -6.903483   -6.622304 C.3        1 UNL1     -0.0615
     26 C         2.02925   -4.585602   -6.674848 C.3        1 UNL1     -0.0615
     27 C         7.966794   2.765911   -4.306329 C.ar        1 UNL1     0.1347
     28 C         7.485791   3.877383   -3.637512 C.ar        1 UNL1     0.0342
     29 C         6.41454   3.612511   -2.758064 C.ar        1 UNL1     0.1435
     30 C         5.852671   2.34375   -2.610518 C.ar        1 UNL1     0.0774
     31 O         5.764983   4.609381   -2.118273 O.3        1 UNL1     -0.4436
     32 C         4.508406   4.03339   -1.730817 C.3        1 UNL1     0.3143
     33 C         4.754361   2.538793   -1.687242 C.2        1 UNL1     0.2504
     34 C         7.886146   5.30332   -3.895425 C.3        1 UNL1     -0.0327
     35 O         4.244441   4.452132   -0.386113 O.2        1 UNL1     -0.4528
     36 C         0.465324   4.613052   -0.069152 C.3        1 UNL1     0.0854
     37 C         -0.604121   3.479822   -0.313285 C.3        1 UNL1     0.0236
     38 C         -1.589748   3.203405   0.921169 C.3        1 UNL1     0.1131
     39 C         -0.990899   2.96259   2.365349 C.3        1 UNL1     0.0200
     40 C         0.340267   1.979459   2.574848 C.3        1 UNL1     0.0661
     41 C         0.528499   0.4147   1.947386 C.3        1 UNL1     0.0091
     42 C         2.035661   -0.4711   1.391309 C.3        1 UNL1     0.0661
     43 C         7.865869   0.373545   -5.037115 C.2        1 UNL1     0.2131
     44 O         8.513391   0.520136   -6.057881 O.2        1 UNL1     -0.2851
     45 O         9.081372   2.899108   -5.131806 O.3        1 UNL1     -0.5056
     46 O         4.18648   1.700724   -1.023158 O.2        1 UNL1     -0.2836
     47 C         4.290337   -0.682818   2.801779 C.3        1 UNL1     -0.0566
     48 O         1.717056   -1.714496   2.133988 O.3        1 UNL1     -0.3909
     49 C         -0.534542   0.178682   0.897751 C.3        1 UNL1     -0.0577
     50 O         1.536592   2.713654   2.409058 O.3        1 UNL1     -0.3910
     51 O         0.539654   5.117122   1.245313 O.3        1 UNL1     -0.3753
     52 C         -0.034281   2.322725   -1.19723 C.3        1 UNL1     -0.0564
     53 O         -2.797826   2.391727   0.555036 O.3        1 UNL1     -0.4608
     54 C         -3.732977   2.737502   -0.385103 C.2        1 UNL1     0.3042
     55 O         -4.090059   2.07861   -1.360907 O.2        1 UNL1     -0.2512
     56 C         -4.403031   4.053807   -0.11109 C.3        1 UNL1     0.0332
     57 C         -1.0109   4.364183   3.135617 C.3        1 UNL1     -0.0567
     58 C         3.514437   4.342267   -2.874561 C.3        1 UNL1     0.0210
     59 C         -0.587597   4.817051   2.066974 C.3        1 UNL1     0.0372
     60 C         1.854395   4.264682   -0.474468 C.2        1 UNL1     -0.0208
     61 C         3.0128   4.453574   0.158906 C.2        1 UNL1     0.0882
     62 H         4.003817   0.264373   0.903081 H        1 UNL1     0.0365
     63 H         5.665485   -0.322903   -0.128516 H        1 UNL1     0.0576
     64 H         6.087231   -3.368342   0.081747 H        1 UNL1     0.0615
     65 H         7.566186   -1.121089   -1.505831 H        1 UNL1     0.0622
     66 H         0.154753   5.43306   -0.731858 H        1 UNL1     0.0645
     67 H         -1.296202   3.919108   -1.052617 H        1 UNL1     0.0362
     68 H         -2.096168   4.179232   0.974293 H        1 UNL1     0.0741
     69 H         -1.741098   2.47948   2.97708 H        1 UNL1     0.0359
     70 H         0.274876   1.799696   3.665017 H        1 UNL1     0.0600
     71 H         0.134201   -0.181571   2.793522 H        1 UNL1     0.0348
     72 H         2.386075   0.350266   2.03309 H        1 UNL1     0.0602
     73 H         1.848633   3.916557   -1.477475 H        1 UNL1     0.0628
     74 H         3.102716   4.751677   1.204031 H        1 UNL1     0.1022
     75 H         9.200834   -4.327315   -3.691855 H        1 UNL1     0.0279
     76 H         9.502954   -4.800948   -2.067756 H        1 UNL1     0.0279
     77 H         7.886471   -5.034526   -2.847323 H        1 UNL1     0.0279
     78 H         7.622887   -2.887605   -4.732122 H        1 UNL1     0.1553
     79 H         5.87541   -3.133936   -3.831084 H        1 UNL1     0.1484
     80 H         2.392256   -1.617656   -3.92069 H        1 UNL1     0.0317
     81 H         3.68876   -1.083842   -4.980899 H        1 UNL1     0.0317
     82 H         4.47819   -3.443676   -5.299787 H        1 UNL1     0.0428
     83 H         2.803197   -3.223378   -5.755387 H        1 UNL1     0.0428
     84 H         3.525845   -4.944769   -1.932073 H        1 UNL1     0.0428
     85 H         4.920957   -4.569192   -2.881666 H        1 UNL1     0.0428
     86 H         4.291385   -2.937347   -1.10246 H        1 UNL1     0.0317
     87 H         2.764879   -2.624254   -1.791012 H        1 UNL1     0.0317
     88 H         3.528656   -6.247222   -4.054773 H        1 UNL1     0.0429
     89 H         1.814076   -5.879167   -4.257223 H        1 UNL1     0.0429
     90 H         4.031675   -5.035822   -6.220517 H        1 UNL1     0.0308
     91 H         2.627301   -6.895152   -7.637006 H        1 UNL1     0.0233
     92 H         4.043035   -7.327637   -6.644964 H        1 UNL1     0.0233
     93 H         2.423898   -7.600757   -6.038002 H        1 UNL1     0.0233
     94 H         2.223428   -4.515135   -7.750564 H        1 UNL1     0.0233
     95 H         1.025491   -4.998142   -6.539788 H        1 UNL1     0.0233
     96 H         2.056364   -3.577407   -6.252028 H        1 UNL1     0.0233
     97 H         7.09397   6.001269   -3.641349 H        1 UNL1     0.0280
     98 H         8.755316   5.604018   -3.295942 H        1 UNL1     0.0280
     99 H         8.129889   5.4309   -4.962855 H        1 UNL1     0.0280
     100 H         9.87116   3.14998   -4.685802 H        1 UNL1     0.2922
     101 H         3.820027   0.181988   3.269301 H        1 UNL1     0.0236
     102 H         5.368383   -0.696731   2.958642 H        1 UNL1     0.0236
     103 H         3.912379   -1.54862   3.370749 H        1 UNL1     0.0236
     104 H         2.395392   -1.825155   2.828672 H        1 UNL1     0.2098
     105 H         -1.167345   -0.685053   1.085724 H        1 UNL1     0.0234
     106 H         -1.145209   1.050674   0.663991 H        1 UNL1     0.0234
     107 H         0.0   0.0   -0.0 H        1 UNL1     0.0234
     108 H         1.862025   2.943215   3.300777 H        1 UNL1     0.2098
     109 H         -0.199112   2.498523   -2.269441 H        1 UNL1     0.0234
     110 H         1.028227   2.126794   -1.017139 H        1 UNL1     0.0234
     111 H         -0.523084   1.364915   -0.974478 H        1 UNL1     0.0234
     112 H         -4.915388   4.405228   -1.011833 H        1 UNL1     0.0342
     113 H         -5.090085   3.995994   0.731797 H        1 UNL1     0.0342
     114 H         -3.626062   4.788076   0.142549 H        1 UNL1     0.0342
     115 H         -1.962024   4.895293   2.992532 H        1 UNL1     0.0234
     116 H         -0.83898   4.282411   4.210701 H        1 UNL1     0.0234
     117 H         -0.293631   5.098825   2.730935 H        1 UNL1     0.0234
     118 H         3.886352   3.991374   -3.853111 H        1 UNL1     0.0309
     119 H         2.516778   3.926772   -2.700654 H        1 UNL1     0.0309
     120 H         3.372411   5.417461   -3.029128 H        1 UNL1     0.0309
     121 H         -0.358657   5.155412   3.077149 H        1 UNL1     0.0524
     122 H         -1.497676   5.345814   1.738031 H        1 UNL1     0.0524
     123 H         -0.780587   3.748013   2.064464 H        1 UNL1     0.0524
@<TRIPOS>BOND
     1     1     2    1
     2     1    42    1
     3     2     3    2
     4     3     4    1
     5     4     5    2
     6     5     7    1
     7     6    75    1
     8     6    76    1
     9     6    77    1
    10     7     9   am
    11     9    10    1
    12    10    11    2
    13    10    43    1
    14    11    14    1
    15    11    15    1
    16    12    13   ar
    17    12    27   ar
    18    12    43    1
    19    13    14    1
    20    13    30   ar
    21    14    17    2
    22    15    16    1
    23    16    17    1
    24    16    18    1
    25    16    22    1
    26    18    19    1
    27    19    20    1
    28    20    21    1
    29    21    22    1
    30    23    24    1
    31    23    88    1
    32    23    89    1
    33    24    25    1
    34    24    26    1
    35    24    90    1
    36    25    91    1
    37    25    92    1
    38    25    93    1
    39    26    94    1
    40    26    95    1
    41    26    96    1
    42    27    28   ar
    43    28    29   ar
    44    29    30   ar
    45    29    31    1
    46    30    33    1
    47    31    32    1
    48    32    33    1
    49    32    35    1
    50    34    97    1
    51    34    98    1
    52    34    99    1
    53    35    61    1
    54    36    37    1
    55    36    60    1
    56    37    38    1
    57    38    39    1
    58    39    40    1
    59    40    41    1
    60    41    42    1
    61    45   100    1
    62    47   101    1
    63    47   102    1
    64    47   103    1
    65    48   104    1
    66    49   105    1
    67    49   106    1
    68    49   107    1
    69    50   108    1
    70    51    59    1
    71    52   109    1
    72    52   110    1
    73    52   111    1
    74    53    54    1
    75    54    55    2
    76    54    56    1
    77    56   112    1
    78    56   113    1
    79    56   114    1
    80    57   115    1
    81    57   116    1
    82    57   117    1
    83    58   118    1
    84    58   119    1
    85    58   120    1
    86    59   121    1
    87    59   122    1
    88    59   123    1
    89    60    61    2
    90     1    47    1
    91     1    62    1
    92     2    63    1
    93     3    64    1
    94     4    65    1
    95     5     6    1
    96     7     8    2
    97     9    78    1
    98    15    79    1
    99    18    80    1
   100    18    81    1
   101    19    82    1
   102    19    83    1
   103    20    23    1
   104    21    84    1
   105    21    85    1
   106    22    86    1
   107    22    87    1
   108    27    45    1
   109    28    34    1
   110    32    58    1
   111    33    46    2
   112    36    51    1
   113    36    66    1
   114    37    52    1
   115    37    67    1
   116    38    53    1
   117    38    68    1
   118    42    48    1
   119    42    72    1
   120    43    44    2
   121    60    73    1
   122    61    74    1
   123    39    69    1
   124    39    57    1
   125    40    70    1
   126    40    50    1
   127    41    71    1
   128    41    49    1
