@<TRIPOS>MOLECULE
*****
 123 128 0 0 0
SMALL
GASTEIGER

@<TRIPOS>ATOM
     1 C         -2.741867   2.744656   1.861792 C.3        1 UNL1     0.0009
     2 C         -2.932709   3.28884   3.623746 C.2        1 UNL1     -0.0787
     3 C         -3.474092   3.082328   4.95051 C.2        1 UNL1     -0.0649
     4 C         -3.162817   3.978839   6.352555 C.2        1 UNL1     -0.0542
     5 C         -3.206257   3.971983   7.768586 C.2        1 UNL1     0.0115
     6 C         -3.723727   3.18837   9.006124 C.3        1 UNL1     -0.0348
     7 C         -2.338438   5.053302   8.577678 C.2        1 UNL1     0.2441
     8 O         -2.826046   6.056253   9.080521 O.2        1 UNL1     -0.2702
     9 N         -1.031869   4.642322   8.894102 N.am        1 UNL1     -0.2772
     10 C         -0.16829   4.956816   7.870067 C.2        1 UNL1     0.1049
     11 C         -0.123073   4.102649   6.863799 C.2        1 UNL1     0.0801
     12 C         0.521971   6.829382   6.361965 C.ar        1 UNL1     0.0753
     13 C         0.352889   5.912673   5.275841 C.ar        1 UNL1     0.0305
     14 C         0.15218   4.483589   5.504941 C.2        1 UNL1     0.0924
     15 N         -0.627247   2.860932   6.761445 N.pl3        1 UNL1     -0.3170
     16 C         -0.153508   2.294758   5.526426 C.3        1 UNL1     0.1275
     17 N         0.077267   3.485809   4.628727 N.2        1 UNL1     -0.2557
     18 C         1.223664   1.698469   5.801267 C.3        1 UNL1     0.0016
     19 C         1.10308   0.701988   6.943229 C.3        1 UNL1     0.0026
     20 N         0.150723   -0.332175   6.563029 N.3        1 UNL1     -0.3018
     21 C         -1.188109   0.151479   6.21955 C.3        1 UNL1     0.0026
     22 C         -1.043718   1.147386   5.067502 C.3        1 UNL1     0.0016
     23 C         0.184742   -1.481879   7.444883 C.3        1 UNL1     0.0012
     24 C         -0.696386   -1.239273   8.680404 C.3        1 UNL1     -0.0339
     25 C         -2.093376   -1.857078   8.504927 C.3        1 UNL1     -0.0615
     26 C         -0.004307   -1.766603   9.925285 C.3        1 UNL1     -0.0615
     27 C         0.832862   8.167998   6.134869 C.ar        1 UNL1     0.1347
     28 C         1.037677   8.695111   4.872232 C.ar        1 UNL1     0.0342
     29 C         0.81792   7.785496   3.816073 C.ar        1 UNL1     0.1435
     30 C         0.470691   6.450536   4.027106 C.ar        1 UNL1     0.0774
     31 O         1.083742   8.116967   2.533703 O.3        1 UNL1     -0.4436
     32 C         1.200101   6.859613   1.850774 C.3        1 UNL1     0.3143
     33 C         0.422286   5.874324   2.69955 C.2        1 UNL1     0.2504
     34 C         1.615903   10.048362   4.564879 C.3        1 UNL1     -0.0327
     35 O         0.498817   6.983716   0.607371 O.2        1 UNL1     -0.4528
     36 C         2.269751   4.666371   -1.82199 C.3        1 UNL1     0.0854
     37 C         2.533787   3.115695   -1.707052 C.3        1 UNL1     0.0236
     38 C         1.998521   2.245522   -2.94319 C.3        1 UNL1     0.1131
     39 C         0.506004   2.41912   -3.437686 C.3        1 UNL1     0.0200
     40 C         -0.742557   2.520736   -2.336229 C.3        1 UNL1     0.0661
     41 C         -1.015587   1.457624   -1.042839 C.3        1 UNL1     0.0091
     42 C         -1.739137   1.761872   0.615266 C.3        1 UNL1     0.0661
     43 C         0.443516   6.287788   7.741378 C.2        1 UNL1     0.2131
     44 O         0.938283   6.83676   8.709146 O.2        1 UNL1     -0.2851
     45 O         0.935295   9.003787   7.245005 O.3        1 UNL1     -0.5056
     46 O         -0.131658   4.854815   2.353715 O.2        1 UNL1     -0.2836
     47 C         -4.045375   3.024944   1.066628 C.3        1 UNL1     -0.0566
     48 O         -2.648035   0.591465   0.558987 O.3        1 UNL1     -0.3909
     49 C         0.221723   0.612758   -0.836054 C.3        1 UNL1     -0.0577
     50 O         -0.929002   3.855957   -1.911794 O.3        1 UNL1     -0.3910
     51 O         1.452621   5.074215   -2.895952 O.3        1 UNL1     -0.3753
     52 C         2.426052   2.615087   -0.229645 C.3        1 UNL1     -0.0564
     53 O         2.558575   0.853794   -2.985123 O.3        1 UNL1     -0.4608
     54 C         3.098666   0.24697   -4.088752 C.2        1 UNL1     0.3042
     55 O         2.496244   -0.214087   -5.057438 O.2        1 UNL1     -0.2512
     56 C         4.600655   0.219913   -4.085587 C.3        1 UNL1     0.0332
     57 C         0.517733   3.463059   -4.64939 C.3        1 UNL1     -0.0567
     58 C         2.698161   6.477727   1.889639 C.3        1 UNL1     0.0210
     59 C         2.154945   5.634989   -4.004166 C.3        1 UNL1     0.0372
     60 C         1.716088   5.302586   -0.595675 C.2        1 UNL1     -0.0208
     61 C         0.722996   6.180913   -0.45057 C.2        1 UNL1     0.0882
     62 H         -2.079522   3.601482   1.688996 H        1 UNL1     0.0365
     63 H         -2.401656   4.242742   3.600865 H        1 UNL1     0.0576
     64 H         -4.036999   2.181574   5.205239 H        1 UNL1     0.0615
     65 H         -2.674212   4.883397   5.980368 H        1 UNL1     0.0622
     66 H         3.266706   5.106205   -1.965768 H        1 UNL1     0.0645
     67 H         3.626817   3.020145   -1.82836 H        1 UNL1     0.0362
     68 H         2.62283   2.664476   -3.747079 H        1 UNL1     0.0741
     69 H         0.232032   1.554616   -4.027583 H        1 UNL1     0.0359
     70 H         -1.602412   2.320023   -3.00363 H        1 UNL1     0.0600
     71 H         -1.695444   0.731291   -1.529863 H        1 UNL1     0.0348
     72 H         -2.06144   2.603216   -0.015271 H        1 UNL1     0.0602
     73 H         2.328522   5.052118   0.234649 H        1 UNL1     0.0628
     74 H         0.014959   6.44652   -1.2363 H        1 UNL1     0.1022
     75 H         -4.826687   3.320327   9.120582 H        1 UNL1     0.0279
     76 H         -3.619405   2.106186   8.973494 H        1 UNL1     0.0279
     77 H         -3.356038   3.602922   9.956204 H        1 UNL1     0.0279
     78 H         -1.010618   3.631664   9.013249 H        1 UNL1     0.1553
     79 H         -0.891341   2.30023   7.550621 H        1 UNL1     0.1484
     80 H         1.593947   1.217807   4.887691 H        1 UNL1     0.0317
     81 H         1.945055   2.481671   6.057861 H        1 UNL1     0.0317
     82 H         0.802071   1.191859   7.880956 H        1 UNL1     0.0428
     83 H         2.0965   0.290229   7.123843 H        1 UNL1     0.0428
     84 H         -1.859973   -0.634701   5.861317 H        1 UNL1     0.0428
     85 H         -1.708156   0.569535   7.092532 H        1 UNL1     0.0428
     86 H         -2.045827   1.377337   4.756234 H        1 UNL1     0.0317
     87 H         -0.614291   0.646827   4.191072 H        1 UNL1     0.0317
     88 H         -0.213244   -2.345302   6.895882 H        1 UNL1     0.0429
     89 H         1.213451   -1.731595   7.735012 H        1 UNL1     0.0429
     90 H         -0.808948   -0.159609   8.834898 H        1 UNL1     0.0308
     91 H         -2.699385   -1.732928   9.407391 H        1 UNL1     0.0233
     92 H         -2.613298   -1.402373   7.658444 H        1 UNL1     0.0233
     93 H         -2.050994   -2.932839   8.295696 H        1 UNL1     0.0233
     94 H         -0.683656   -1.720495   10.783303 H        1 UNL1     0.0233
     95 H         0.283182   -2.811507   9.77869 H        1 UNL1     0.0233
     96 H         0.890608   -1.184063   10.161382 H        1 UNL1     0.0233
     97 H         2.17432   10.452937   5.403759 H        1 UNL1     0.0280
     98 H         2.319675   10.016154   3.722902 H        1 UNL1     0.0280
     99 H         0.802089   10.750597   4.320611 H        1 UNL1     0.0280
     100 H         0.74541   8.587486   8.067355 H        1 UNL1     0.2922
     101 H         -4.451688   2.088568   0.684834 H        1 UNL1     0.0236
     102 H         -3.915806   3.766026   0.278597 H        1 UNL1     0.0236
     103 H         -4.842529   3.434533   1.709259 H        1 UNL1     0.0236
     104 H         -3.072492   0.589694   -0.321242 H        1 UNL1     0.2098
     105 H         0.465071   -0.03924   -1.671214 H        1 UNL1     0.0234
     106 H         1.104864   1.168152   -0.520577 H        1 UNL1     0.0234
     107 H         0.0   0.0   0.0 H        1 UNL1     0.0234
     108 H         -0.950845   4.414547   -2.712587 H        1 UNL1     0.2098
     109 H         1.512112   2.03062   -0.05408 H        1 UNL1     0.0234
     110 H         3.298435   2.036983   0.093599 H        1 UNL1     0.0234
     111 H         2.384082   3.45259   0.479421 H        1 UNL1     0.0234
     112 H         4.966944   0.008837   -3.076317 H        1 UNL1     0.0342
     113 H         4.998885   -0.495663   -4.803366 H        1 UNL1     0.0342
     114 H         4.962369   1.216613   -4.373541 H        1 UNL1     0.0342
     115 H         1.162134   3.12571   -5.472878 H        1 UNL1     0.0234
     116 H         -0.469508   3.668466   -5.067974 H        1 UNL1     0.0234
     117 H         0.986819   4.4287   -4.393585 H        1 UNL1     0.0234
     118 H         2.861549   5.486319   2.347265 H        1 UNL1     0.0309
     119 H         3.172835   6.499629   0.903532 H        1 UNL1     0.0309
     120 H         3.286752   7.14903   2.524476 H        1 UNL1     0.0309
     121 H         2.641546   6.546778   -3.658887 H        1 UNL1     0.0524
     122 H         2.941714   4.962421   -4.384539 H        1 UNL1     0.0524
     123 H         1.464075   5.861401   -4.811341 H        1 UNL1     0.0524
@<TRIPOS>BOND
     1     1     2    1
     2     1    42    1
     3     2     3    2
     4     3     4    1
     5     4     5    2
     6     5     7    1
     7     6    75    1
     8     6    76    1
     9     6    77    1
    10     7     9   am
    11     9    10    1
    12    10    11    2
    13    10    43    1
    14    11    14    1
    15    11    15    1
    16    12    13   ar
    17    12    27   ar
    18    12    43    1
    19    13    14    1
    20    13    30   ar
    21    14    17    2
    22    15    16    1
    23    16    17    1
    24    16    18    1
    25    16    22    1
    26    18    19    1
    27    19    20    1
    28    20    21    1
    29    21    22    1
    30    23    24    1
    31    23    88    1
    32    23    89    1
    33    24    25    1
    34    24    26    1
    35    24    90    1
    36    25    91    1
    37    25    92    1
    38    25    93    1
    39    26    94    1
    40    26    95    1
    41    26    96    1
    42    27    28   ar
    43    28    29   ar
    44    29    30   ar
    45    29    31    1
    46    30    33    1
    47    31    32    1
    48    32    33    1
    49    32    35    1
    50    34    97    1
    51    34    98    1
    52    34    99    1
    53    35    61    1
    54    36    37    1
    55    36    60    1
    56    37    38    1
    57    38    39    1
    58    39    40    1
    59    40    41    1
    60    41    42    1
    61    45   100    1
    62    47   101    1
    63    47   102    1
    64    47   103    1
    65    48   104    1
    66    49   105    1
    67    49   106    1
    68    49   107    1
    69    50   108    1
    70    51    59    1
    71    52   109    1
    72    52   110    1
    73    52   111    1
    74    53    54    1
    75    54    55    2
    76    54    56    1
    77    56   112    1
    78    56   113    1
    79    56   114    1
    80    57   115    1
    81    57   116    1
    82    57   117    1
    83    58   118    1
    84    58   119    1
    85    58   120    1
    86    59   121    1
    87    59   122    1
    88    59   123    1
    89    60    61    2
    90     1    47    1
    91     1    62    1
    92     2    63    1
    93     3    64    1
    94     4    65    1
    95     5     6    1
    96     7     8    2
    97     9    78    1
    98    15    79    1
    99    18    80    1
   100    18    81    1
   101    19    82    1
   102    19    83    1
   103    20    23    1
   104    21    84    1
   105    21    85    1
   106    22    86    1
   107    22    87    1
   108    27    45    1
   109    28    34    1
   110    32    58    1
   111    33    46    2
   112    36    51    1
   113    36    66    1
   114    37    52    1
   115    37    67    1
   116    38    53    1
   117    38    68    1
   118    42    48    1
   119    42    72    1
   120    43    44    2
   121    60    73    1
   122    61    74    1
   123    39    69    1
   124    39    57    1
   125    40    70    1
   126    40    50    1
   127    41    71    1
   128    41    49    1
