@<TRIPOS>MOLECULE
*****
 123 128 0 0 0
SMALL
GASTEIGER

@<TRIPOS>ATOM
     1 C         2.938666   -2.180529   2.307127 C.3        1 UNL1     0.0009
     2 C         3.276234   -2.258427   4.128395 C.2        1 UNL1     -0.0787
     3 C         3.908682   -1.717134   5.312902 C.2        1 UNL1     -0.0649
     4 C         3.729295   -2.231896   6.915774 C.2        1 UNL1     -0.0542
     5 C         3.877931   -1.865886   8.276297 C.2        1 UNL1     0.0115
     6 C         4.462903   -0.78922   9.231241 C.3        1 UNL1     -0.0348
     7 C         3.105037   -2.715073   9.398128 C.2        1 UNL1     0.2441
     8 O         3.65808   -3.553059   10.097019 O.2        1 UNL1     -0.2702
     9 N         1.814154   -2.249885   9.703699 N.am        1 UNL1     -0.2772
     10 C         0.886289   -2.821983   8.864002 C.2        1 UNL1     0.1049
     11 C         0.741075   -2.251278   7.681872 C.2        1 UNL1     0.0801
     12 C         0.140973   -5.022229   7.936233 C.ar        1 UNL1     0.0753
     13 C         0.201576   -4.409212   6.644279 C.ar        1 UNL1     0.0305
     14 C         0.376644   -2.966871   6.489188 C.2        1 UNL1     0.0924
     15 N         1.199444   -1.07128   7.230175 N.pl3        1 UNL1     -0.3170
     16 C         0.618515   -0.841255   5.93408 C.3        1 UNL1     0.1275
     17 N         0.356638   -2.223128   5.386749 N.2        1 UNL1     -0.2557
     18 C         -0.751298   -0.208038   6.15847 C.3        1 UNL1     0.0016
     19 C         -0.575325   1.046489   6.999175 C.3        1 UNL1     0.0026
     20 N         0.315188   1.959598   6.296148 N.3        1 UNL1     -0.3018
     21 C         1.638353   1.417565   5.98023 C.3        1 UNL1     0.0026
     22 C         1.437881   0.160806   5.131546 C.3        1 UNL1     0.0016
     23 C         0.313158   3.294914   6.859682 C.3        1 UNL1     0.0012
     24 C         -0.489468   4.254851   5.967454 C.3        1 UNL1     -0.0339
     25 C         -0.935988   3.571   4.664755 C.3        1 UNL1     -0.0615
     26 C         -1.671923   4.816044   6.737935 C.3        1 UNL1     -0.0615
     27 C         -0.146437   -6.377614   8.079226 C.ar        1 UNL1     0.1347
     28 C         -0.429181   -7.209529   7.010571 C.ar        1 UNL1     0.0342
     29 C         -0.315625   -6.59529   5.745273 C.ar        1 UNL1     0.1435
     30 C         0.006917   -5.247165   5.584817 C.ar        1 UNL1     0.0774
     31 O         -0.66641   -7.243551   4.613145 O.3        1 UNL1     -0.4436
     32 C         -0.870309   -6.201566   3.646933 C.3        1 UNL1     0.3143
     33 C         -0.06074   -5.025868   4.155406 C.2        1 UNL1     0.2504
     34 C         -0.988618   -8.601984   7.101115 C.3        1 UNL1     -0.0327
     35 O         -0.260298   -6.630068   2.423199 O.2        1 UNL1     -0.4528
     36 C         -2.274817   -5.021389   -0.362829 C.3        1 UNL1     0.0854
     37 C         -2.575088   -3.494839   -0.621688 C.3        1 UNL1     0.0236
     38 C         -2.15929   -2.961344   -2.07573 C.3        1 UNL1     0.1131
     39 C         -0.703318   -3.240269   -2.627649 C.3        1 UNL1     0.0200
     40 C         0.626312   -3.047342   -1.639064 C.3        1 UNL1     0.0661
     41 C         0.963565   -1.688511   -0.681229 C.3        1 UNL1     0.0091
     42 C         1.817324   -1.555525   0.937045 C.3        1 UNL1     0.0661
     43 C         0.306041   -4.14792   9.123918 C.2        1 UNL1     0.2131
     44 O         -0.098846   -4.438363   10.234975 O.2        1 UNL1     -0.2851
     45 O         -0.141197   -6.905631   9.368648 O.3        1 UNL1     -0.5056
     46 O         0.435634   -4.122053   3.520911 O.2        1 UNL1     -0.2836
     47 C         4.186969   -2.64069   1.507144 C.3        1 UNL1     -0.0566
     48 O         2.68465   -0.428933   0.515557 O.3        1 UNL1     -0.3909
     49 C         -0.279225   -0.830756   -0.596236 C.3        1 UNL1     -0.0577
     50 O         0.883098   -4.2295   -0.908115 O.3        1 UNL1     -0.3910
     51 O         -1.528352   -5.680283   -1.360867 O.3        1 UNL1     -0.3753
     52 C         -2.372324   -2.635052   0.668507 C.3        1 UNL1     -0.0564
     53 O         -2.761638   -1.631155   -2.422287 O.3        1 UNL1     -0.4608
     54 C         -3.836608   -1.436387   -3.249592 C.2        1 UNL1     0.3042
     55 O         -4.893499   -0.867305   -2.979466 O.2        1 UNL1     -0.2512
     56 C         -3.621256   -1.947139   -4.645826 C.3        1 UNL1     0.0332
     57 C         -0.774586   -4.557336   -3.532321 C.3        1 UNL1     -0.0567
     58 C         -2.371896   -5.836721   3.707373 C.3        1 UNL1     0.0210
     59 C         -2.200147   -6.770412   -1.990292 C.3        1 UNL1     0.0372
     60 C         -1.612808   -5.320601   0.936161 C.2        1 UNL1     -0.0208
     61 C         -0.586239   -6.123866   1.218413 C.2        1 UNL1     0.0882
     62 H         2.290796   -3.059498   2.409056 H        1 UNL1     0.0365
     63 H         2.773264   -3.19203   4.388926 H        1 UNL1     0.0576
     64 H         4.462246   -0.775861   5.286837 H        1 UNL1     0.0615
     65 H         3.241151   -3.20591   6.823602 H        1 UNL1     0.0622
     66 H         -3.266335   -5.492865   -0.311361 H        1 UNL1     0.0645
     67 H         -3.676456   -3.443673   -0.675803 H        1 UNL1     0.0362
     68 H         -2.829172   -3.576379   -2.695821 H        1 UNL1     0.0741
     69 H         -0.499641   -2.550948   -3.436203 H        1 UNL1     0.0359
     70 H         1.427752   -3.014113   -2.401725 H        1 UNL1     0.0600
     71 H         1.583555   -1.102861   -1.388042 H        1 UNL1     0.0348
     72 H         2.116364   -2.526088   0.515267 H        1 UNL1     0.0602
     73 H         -2.168761   -4.873729   1.72259 H        1 UNL1     0.0628
     74 H         0.06878   -6.57316   0.471202 H        1 UNL1     0.1022
     75 H         4.443092   0.216778   8.746875 H        1 UNL1     0.0279
     76 H         3.918763   -0.6144   10.15667 H        1 UNL1     0.0279
     77 H         5.539645   -0.921398   9.4125 H        1 UNL1     0.0279
     78 H         1.7721   -1.242288   9.56565 H        1 UNL1     0.1553
     79 H         1.505001   -0.326326   7.829017 H        1 UNL1     0.1484
     80 H         -1.20263   0.021751   5.18571 H        1 UNL1     0.0317
     81 H         -1.428189   -0.90751   6.660676 H        1 UNL1     0.0317
     82 H         -0.190974   0.813248   8.00306 H        1 UNL1     0.0428
     83 H         -1.564211   1.481014   7.148652 H        1 UNL1     0.0428
     84 H         2.258212   2.093675   5.383187 H        1 UNL1     0.0428
     85 H         2.234099   1.239482   6.886149 H        1 UNL1     0.0428
     86 H         2.420338   -0.130895   4.809558 H        1 UNL1     0.0317
     87 H         0.929778   0.418691   4.194304 H        1 UNL1     0.0317
     88 H         -0.168279   3.24894   7.845278 H        1 UNL1     0.0429
     89 H         1.335221   3.66254   7.017836 H        1 UNL1     0.0429
     90 H         0.137941   5.116994   5.71195 H        1 UNL1     0.0308
     91 H         -2.012793   3.377117   4.666196 H        1 UNL1     0.0233
     92 H         -0.683737   4.187454   3.798751 H        1 UNL1     0.0233
     93 H         -0.439182   2.605851   4.508208 H        1 UNL1     0.0233
     94 H         -1.341932   5.622864   7.401249 H        1 UNL1     0.0233
     95 H         -2.407817   5.230505   6.043209 H        1 UNL1     0.0233
     96 H         -2.154707   4.045176   7.3451 H        1 UNL1     0.0233
     97 H         -0.748038   -9.077006   8.047533 H        1 UNL1     0.0280
     98 H         -2.084031   -8.613367   7.029029 H        1 UNL1     0.0280
     99 H         -0.57298   -9.22024   6.28865 H        1 UNL1     0.0280
     100 H         0.213224   -7.774939   9.434308 H        1 UNL1     0.2922
     101 H         3.91511   -3.458139   0.839666 H        1 UNL1     0.0236
     102 H         5.033508   -2.896549   2.143455 H        1 UNL1     0.0236
     103 H         4.566237   -1.848835   0.839826 H        1 UNL1     0.0236
     104 H         2.802709   0.157524   1.28828 H        1 UNL1     0.2098
     105 H         -0.629149   -0.45107   -1.552899 H        1 UNL1     0.0234
     106 H         -1.104544   -1.278459   -0.042758 H        1 UNL1     0.0234
     107 H         0.0   0.0   0.0 H        1 UNL1     0.0234
     108 H         0.09936   -4.804587   -1.001915 H        1 UNL1     0.2098
     109 H         -2.906346   -1.675927   0.617405 H        1 UNL1     0.0234
     110 H         -2.653942   -3.162799   1.586068 H        1 UNL1     0.0234
     111 H         -1.315562   -2.379042   0.822322 H        1 UNL1     0.0234
     112 H         -4.128618   -2.908275   -4.772901 H        1 UNL1     0.0342
     113 H         -3.946887   -1.230895   -5.39869 H        1 UNL1     0.0342
     114 H         -2.544543   -2.113284   -4.788123 H        1 UNL1     0.0342
     115 H         -1.680477   -4.577442   -4.153727 H        1 UNL1     0.0234
     116 H         0.082205   -4.686533   -4.1966 H        1 UNL1     0.0234
     117 H         -0.895978   -5.485989   -2.948531 H        1 UNL1     0.0234
     118 H         -3.019164   -6.720376   3.568798 H        1 UNL1     0.0309
     119 H         -2.653519   -5.328419   4.635015 H        1 UNL1     0.0309
     120 H         -2.675799   -5.170744   2.892374 H        1 UNL1     0.0309
     121 H         -2.555879   -7.436364   -1.204595 H        1 UNL1     0.0524
     122 H         -3.07879   -6.441824   -2.569992 H        1 UNL1     0.0524
     123 H         -1.519779   -7.300109   -2.651059 H        1 UNL1     0.0524
@<TRIPOS>BOND
     1     1     2    1
     2     1    42    1
     3     2     3    2
     4     3     4    1
     5     4     5    2
     6     5     7    1
     7     6    75    1
     8     6    76    1
     9     6    77    1
    10     7     9   am
    11     9    10    1
    12    10    11    2
    13    10    43    1
    14    11    14    1
    15    11    15    1
    16    12    13   ar
    17    12    27   ar
    18    12    43    1
    19    13    14    1
    20    13    30   ar
    21    14    17    2
    22    15    16    1
    23    16    17    1
    24    16    18    1
    25    16    22    1
    26    18    19    1
    27    19    20    1
    28    20    21    1
    29    21    22    1
    30    23    24    1
    31    23    88    1
    32    23    89    1
    33    24    25    1
    34    24    26    1
    35    24    90    1
    36    25    91    1
    37    25    92    1
    38    25    93    1
    39    26    94    1
    40    26    95    1
    41    26    96    1
    42    27    28   ar
    43    28    29   ar
    44    29    30   ar
    45    29    31    1
    46    30    33    1
    47    31    32    1
    48    32    33    1
    49    32    35    1
    50    34    97    1
    51    34    98    1
    52    34    99    1
    53    35    61    1
    54    36    37    1
    55    36    60    1
    56    37    38    1
    57    38    39    1
    58    39    40    1
    59    40    41    1
    60    41    42    1
    61    45   100    1
    62    47   101    1
    63    47   102    1
    64    47   103    1
    65    48   104    1
    66    49   105    1
    67    49   106    1
    68    49   107    1
    69    50   108    1
    70    51    59    1
    71    52   109    1
    72    52   110    1
    73    52   111    1
    74    53    54    1
    75    54    55    2
    76    54    56    1
    77    56   112    1
    78    56   113    1
    79    56   114    1
    80    57   115    1
    81    57   116    1
    82    57   117    1
    83    58   118    1
    84    58   119    1
    85    58   120    1
    86    59   121    1
    87    59   122    1
    88    59   123    1
    89    60    61    2
    90     1    47    1
    91     1    62    1
    92     2    63    1
    93     3    64    1
    94     4    65    1
    95     5     6    1
    96     7     8    2
    97     9    78    1
    98    15    79    1
    99    18    80    1
   100    18    81    1
   101    19    82    1
   102    19    83    1
   103    20    23    1
   104    21    84    1
   105    21    85    1
   106    22    86    1
   107    22    87    1
   108    27    45    1
   109    28    34    1
   110    32    58    1
   111    33    46    2
   112    36    51    1
   113    36    66    1
   114    37    52    1
   115    37    67    1
   116    38    53    1
   117    38    68    1
   118    42    48    1
   119    42    72    1
   120    43    44    2
   121    60    73    1
   122    61    74    1
   123    39    69    1
   124    39    57    1
   125    40    70    1
   126    40    50    1
   127    41    71    1
   128    41    49    1
