@<TRIPOS>MOLECULE
*****
 123 128 0 0 0
SMALL
GASTEIGER

@<TRIPOS>ATOM
     1 C         0.259045   0.014503   4.119111 C.3        1 UNL1     0.0009
     2 C         -0.935408   -0.724756   5.328994 C.2        1 UNL1     -0.0787
     3 C         -2.055798   -0.58206   6.234759 C.2        1 UNL1     -0.0649
     4 C         -2.872846   -1.800835   7.079376 C.2        1 UNL1     -0.0542
     5 C         -4.071232   -2.143623   7.75276 C.2        1 UNL1     0.0115
     6 C         -5.401807   -1.574958   8.318012 C.3        1 UNL1     -0.0348
     7 C         -4.40528   -3.693607   8.003658 C.2        1 UNL1     0.2441
     8 O         -4.246568   -4.241831   9.085687 O.2        1 UNL1     -0.2702
     9 N         -5.135428   -4.312865   6.974311 N.am        1 UNL1     -0.2772
     10 C         -4.28408   -4.819299   6.019296 C.2        1 UNL1     0.1049
     11 C         -3.854008   -3.9633   5.110161 C.2        1 UNL1     0.0801
     12 C         -2.227286   -6.214255   5.734637 C.ar        1 UNL1     0.0753
     13 C         -1.717025   -5.155252   4.918085 C.ar        1 UNL1     0.0305
     14 C         -2.56819   -4.054077   4.473131 C.2        1 UNL1     0.0924
     15 N         -4.271509   -2.716404   4.831823 N.pl3        1 UNL1     -0.3170
     16 C         -3.592184   -2.281243   3.640435 C.3        1 UNL1     0.1275
     17 N         -2.29468   -3.052088   3.642387 N.2        1 UNL1     -0.2557
     18 C         -4.391394   -2.800394   2.449029 C.3        1 UNL1     0.0016
     19 C         -5.823711   -2.305319   2.571338 C.3        1 UNL1     0.0026
     20 N         -5.814387   -0.849289   2.601589 N.3        1 UNL1     -0.3018
     21 C         -5.019381   -0.254879   3.678163 C.3        1 UNL1     0.0026
     22 C         -3.583522   -0.762036   3.533265 C.3        1 UNL1     0.0016
     23 C         -7.13114   -0.272922   2.415559 C.3        1 UNL1     0.0012
     24 C         -7.609632   -0.478324   0.969664 C.3        1 UNL1     -0.0339
     25 C         -8.517066   -1.713536   0.847716 C.3        1 UNL1     -0.0615
     26 C         -8.302729   0.776272   0.467285 C.3        1 UNL1     -0.0615
     27 C         -1.443914   -7.320726   6.054273 C.ar        1 UNL1     0.1347
     28 C         -0.154587   -7.497884   5.584911 C.ar        1 UNL1     0.0342
     29 C         0.343776   -6.419662   4.823179 C.ar        1 UNL1     0.1435
     30 C         -0.416903   -5.288417   4.525066 C.ar        1 UNL1     0.0774
     31 O         1.542347   -6.488915   4.203794 O.3        1 UNL1     -0.4436
     32 C         1.486856   -5.472264   3.19176 C.3        1 UNL1     0.3143
     33 C         0.440442   -4.488677   3.675276 C.2        1 UNL1     0.2504
     34 C         0.650765   -8.764049   5.676207 C.3        1 UNL1     -0.0327
     35 O         2.74433   -4.785438   3.208527 O.2        1 UNL1     -0.4528
     36 C         3.326463   -3.593327   -0.347887 C.3        1 UNL1     0.0854
     37 C         2.420292   -2.670106   -1.250129 C.3        1 UNL1     0.0236
     38 C         3.153866   -1.371619   -1.83966 C.3        1 UNL1     0.1131
     39 C         3.95682   -0.414883   -0.868995 C.3        1 UNL1     0.0200
     40 C         3.319322   0.015315   0.611196 C.3        1 UNL1     0.0661
     41 C         1.756244   0.615611   0.883305 C.3        1 UNL1     0.0091
     42 C         0.639492   0.417003   2.325117 C.3        1 UNL1     0.0661
     43 C         -3.648167   -6.138115   6.156016 C.2        1 UNL1     0.2131
     44 O         -4.302065   -7.107236   6.496544 O.2        1 UNL1     -0.2851
     45 O         -2.000717   -8.285069   6.8918 O.3        1 UNL1     -0.5056
     46 O         0.348149   -3.306283   3.431802 O.2        1 UNL1     -0.2836
     47 C         1.331847   0.853299   4.864429 C.3        1 UNL1     -0.0566
     48 O         0.298385   1.858033   2.403831 O.3        1 UNL1     -0.3909
     49 C         0.921663   0.383498   -0.35649 C.3        1 UNL1     -0.0577
     50 O         3.646493   -0.944472   1.595823 O.3        1 UNL1     -0.3910
     51 O         4.601317   -3.08289   -0.029086 O.3        1 UNL1     -0.3753
     52 C         0.941931   -2.630941   -0.742327 C.3        1 UNL1     -0.0564
     53 O         2.39941   -0.710473   -2.955907 O.3        1 UNL1     -0.4608
     54 C         2.576526   0.580542   -3.37998 C.2        1 UNL1     0.3042
     55 O         1.788208   1.518469   -3.267343 O.2        1 UNL1     -0.2512
     56 C         3.924305   0.832371   -3.993809 C.3        1 UNL1     0.0332
     57 C         5.493287   -0.856427   -0.918824 C.3        1 UNL1     -0.0567
     58 C         0.968598   -6.161025   1.907803 C.3        1 UNL1     0.0210
     59 C         5.593401   -4.072712   0.239034 C.3        1 UNL1     0.0372
     60 C         2.70463   -4.025919   0.933264 C.2        1 UNL1     -0.0208
     61 C         3.207629   -4.066963   2.16779 C.2        1 UNL1     0.0882
     62 H         0.691279   -0.981767   3.966362 H        1 UNL1     0.0365
     63 H         -0.557087   -1.747333   5.389639 H        1 UNL1     0.0576
     64 H         -2.598942   0.360894   6.329311 H        1 UNL1     0.0615
     65 H         -2.213165   -2.668044   6.988532 H        1 UNL1     0.0622
     66 H         3.463992   -4.508839   -0.940314 H        1 UNL1     0.0645
     67 H         2.25861   -3.265436   -2.165552 H        1 UNL1     0.0362
     68 H         3.916759   -1.859506   -2.465345 H        1 UNL1     0.0741
     69 H         4.09164   0.541633   -1.356138 H        1 UNL1     0.0359
     70 H         3.960513   0.885505   0.849325 H        1 UNL1     0.0600
     71 H         1.951995   1.703563   0.812609 H        1 UNL1     0.0348
     72 H         1.649883   0.180848   2.689338 H        1 UNL1     0.0602
     73 H         1.754453   -4.455168   0.732871 H        1 UNL1     0.0628
     74 H         4.146365   -3.59956   2.467033 H        1 UNL1     0.1022
     75 H         -5.468441   -0.475752   8.132697 H        1 UNL1     0.0279
     76 H         -6.318815   -1.944922   7.864919 H        1 UNL1     0.0279
     77 H         -5.44796   -1.612851   9.416253 H        1 UNL1     0.0279
     78 H         -5.733515   -3.626748   6.518665 H        1 UNL1     0.1553
     79 H         -5.162899   -2.351633   5.113423 H        1 UNL1     0.1484
     80 H         -3.922985   -2.446394   1.522723 H        1 UNL1     0.0317
     81 H         -4.371841   -3.894871   2.41175 H        1 UNL1     0.0317
     82 H         -6.321994   -2.716538   3.461577 H        1 UNL1     0.0428
     83 H         -6.376268   -2.688424   1.712873 H        1 UNL1     0.0428
     84 H         -4.963874   0.837135   3.630871 H        1 UNL1     0.0428
     85 H         -5.453892   -0.457369   4.666856 H        1 UNL1     0.0428
     86 H         -3.006774   -0.207209   4.249864 H        1 UNL1     0.0317
     87 H         -3.168196   -0.441182   2.570117 H        1 UNL1     0.0317
     88 H         -7.827592   -0.787318   3.090575 H        1 UNL1     0.0429
     89 H         -7.143565   0.789875   2.68957 H        1 UNL1     0.0429
     90 H         -6.738091   -0.619761   0.319569 H        1 UNL1     0.0308
     91 H         -9.382363   -1.638625   1.513112 H        1 UNL1     0.0233
     92 H         -8.864987   -1.837271   -0.18051 H        1 UNL1     0.0233
     93 H         -7.995215   -2.642432   1.107828 H        1 UNL1     0.0233
     94 H         -8.810145   0.573083   -0.481967 H        1 UNL1     0.0233
     95 H         -9.056642   1.101376   1.189701 H        1 UNL1     0.0233
     96 H         -7.5897   1.590527   0.310608 H        1 UNL1     0.0233
     97 H         1.618257   -8.667321   5.192644 H        1 UNL1     0.0280
     98 H         0.861377   -9.046472   6.715984 H        1 UNL1     0.0280
     99 H         0.101738   -9.586554   5.189226 H        1 UNL1     0.0280
     100 H         -1.98118   -9.160804   6.54781 H        1 UNL1     0.2922
     101 H         2.052747   1.247762   4.148638 H        1 UNL1     0.0236
     102 H         1.815812   0.30818   5.674125 H        1 UNL1     0.0236
     103 H         0.89867   1.745797   5.346091 H        1 UNL1     0.0236
     104 H         0.90316   2.269319   3.051952 H        1 UNL1     0.2098
     105 H         0.708663   1.282569   -0.929302 H        1 UNL1     0.0234
     106 H         1.290946   -0.404148   -1.013126 H        1 UNL1     0.0234
     107 H         0.0   -0.0   0.0 H        1 UNL1     0.0234
     108 H         3.208028   -1.77988   1.343612 H        1 UNL1     0.2098
     109 H         0.865513   -2.253551   0.286969 H        1 UNL1     0.0234
     110 H         0.277971   -2.05346   -1.394567 H        1 UNL1     0.0234
     111 H         0.493065   -3.633032   -0.725588 H        1 UNL1     0.0234
     112 H         4.003088   1.879318   -4.302095 H        1 UNL1     0.0342
     113 H         4.737379   0.560556   -3.32234 H        1 UNL1     0.0342
     114 H         4.013319   0.208638   -4.893919 H        1 UNL1     0.0342
     115 H         5.904163   -0.79129   -1.935744 H        1 UNL1     0.0234
     116 H         6.14409   -0.273824   -0.263784 H        1 UNL1     0.0234
     117 H         5.651445   -1.925068   -0.693136 H        1 UNL1     0.0234
     118 H         1.776766   -6.673532   1.35716 H        1 UNL1     0.0309
     119 H         0.158513   -6.872019   2.098727 H        1 UNL1     0.0309
     120 H         0.578112   -5.445915   1.175516 H        1 UNL1     0.0309
     121 H         5.267484   -4.638287   1.111536 H        1 UNL1     0.0524
     122 H         5.709166   -4.785511   -0.594365 H        1 UNL1     0.0524
     123 H         6.551976   -3.600659   0.434974 H        1 UNL1     0.0524
@<TRIPOS>BOND
     1     1     2    1
     2     1    42    1
     3     2     3    2
     4     3     4    1
     5     4     5    2
     6     5     7    1
     7     6    75    1
     8     6    76    1
     9     6    77    1
    10     7     9   am
    11     9    10    1
    12    10    11    2
    13    10    43    1
    14    11    14    1
    15    11    15    1
    16    12    13   ar
    17    12    27   ar
    18    12    43    1
    19    13    14    1
    20    13    30   ar
    21    14    17    2
    22    15    16    1
    23    16    17    1
    24    16    18    1
    25    16    22    1
    26    18    19    1
    27    19    20    1
    28    20    21    1
    29    21    22    1
    30    23    24    1
    31    23    88    1
    32    23    89    1
    33    24    25    1
    34    24    26    1
    35    24    90    1
    36    25    91    1
    37    25    92    1
    38    25    93    1
    39    26    94    1
    40    26    95    1
    41    26    96    1
    42    27    28   ar
    43    28    29   ar
    44    29    30   ar
    45    29    31    1
    46    30    33    1
    47    31    32    1
    48    32    33    1
    49    32    35    1
    50    34    97    1
    51    34    98    1
    52    34    99    1
    53    35    61    1
    54    36    37    1
    55    36    60    1
    56    37    38    1
    57    38    39    1
    58    39    40    1
    59    40    41    1
    60    41    42    1
    61    45   100    1
    62    47   101    1
    63    47   102    1
    64    47   103    1
    65    48   104    1
    66    49   105    1
    67    49   106    1
    68    49   107    1
    69    50   108    1
    70    51    59    1
    71    52   109    1
    72    52   110    1
    73    52   111    1
    74    53    54    1
    75    54    55    2
    76    54    56    1
    77    56   112    1
    78    56   113    1
    79    56   114    1
    80    57   115    1
    81    57   116    1
    82    57   117    1
    83    58   118    1
    84    58   119    1
    85    58   120    1
    86    59   121    1
    87    59   122    1
    88    59   123    1
    89    60    61    2
    90     1    47    1
    91     1    62    1
    92     2    63    1
    93     3    64    1
    94     4    65    1
    95     5     6    1
    96     7     8    2
    97     9    78    1
    98    15    79    1
    99    18    80    1
   100    18    81    1
   101    19    82    1
   102    19    83    1
   103    20    23    1
   104    21    84    1
   105    21    85    1
   106    22    86    1
   107    22    87    1
   108    27    45    1
   109    28    34    1
   110    32    58    1
   111    33    46    2
   112    36    51    1
   113    36    66    1
   114    37    52    1
   115    37    67    1
   116    38    53    1
   117    38    68    1
   118    42    48    1
   119    42    72    1
   120    43    44    2
   121    60    73    1
   122    61    74    1
   123    39    69    1
   124    39    57    1
   125    40    70    1
   126    40    50    1
   127    41    71    1
   128    41    49    1
