@<TRIPOS>MOLECULE
*****
 123 128 0 0 0
SMALL
GASTEIGER

@<TRIPOS>ATOM
     1 C         -3.842633   -2.763082   2.055868 C.3        1 UNL1     0.0009
     2 C         -5.210119   -3.947201   1.64981 C.2        1 UNL1     -0.0787
     3 C         -6.565211   -4.196348   1.20518 C.2        1 UNL1     -0.0649
     4 C         -7.297787   -5.68892   0.885936 C.2        1 UNL1     -0.0542
     5 C         -8.363275   -6.339729   0.216413 C.2        1 UNL1     0.0115
     6 C         -9.689941   -6.106917   -0.55759 C.3        1 UNL1     -0.0348
     7 C         -8.269117   -7.921697   -0.03952 C.2        1 UNL1     0.2441
     8 O         -8.874315   -8.742304   0.636398 O.2        1 UNL1     -0.2702
     9 N         -7.655153   -8.286948   -1.250218 N.am        1 UNL1     -0.2772
     10 C         -6.293757   -8.397774   -1.083966 C.2        1 UNL1     0.1049
     11 C         -5.605766   -7.272392   -1.150342 C.2        1 UNL1     0.0801
     12 C         -4.552472   -9.420279   0.392429 C.ar        1 UNL1     0.0753
     13 C         -3.956668   -8.120518   0.457605 C.ar        1 UNL1     0.0305
     14 C         -4.391062   -7.034872   -0.418593 C.2        1 UNL1     0.0924
     15 N         -5.985684   -6.050697   -1.562232 N.pl3        1 UNL1     -0.3170
     16 C         -4.814343   -5.215991   -1.600709 C.3        1 UNL1     0.1275
     17 N         -3.892555   -5.810429   -0.564043 N.2        1 UNL1     -0.2557
     18 C         -4.139265   -5.446075   -2.949425 C.3        1 UNL1     0.0016
     19 C         -5.147334   -5.164451   -4.052182 C.3        1 UNL1     0.0026
     20 N         -5.607935   -3.788723   -3.924713 N.3        1 UNL1     -0.3018
     21 C         -6.217248   -3.453973   -2.635896 C.3        1 UNL1     0.0026
     22 C         -5.185765   -3.740091   -1.543159 C.3        1 UNL1     0.0016
     23 C         -6.33537   -3.327281   -5.090283 C.3        1 UNL1     0.0012
     24 C         -7.290626   -2.184588   -4.711477 C.3        1 UNL1     -0.0339
     25 C         -7.637145   -2.21444   -3.213782 C.3        1 UNL1     -0.0615
     26 C         -6.69346   -0.849367   -5.120571 C.3        1 UNL1     -0.0615
     27 C         -4.053378   -10.481532   1.143938 C.ar        1 UNL1     0.1347
     28 C         -2.943225   -10.374782   1.962606 C.ar        1 UNL1     0.0342
     29 C         -2.402933   -9.07407   2.048608 C.ar        1 UNL1     0.1435
     30 C         -2.914505   -7.99315   1.329493 C.ar        1 UNL1     0.0774
     31 O         -1.255079   -8.830582   2.718049 O.3        1 UNL1     -0.4436
     32 C         -0.792468   -7.574308   2.199745 C.3        1 UNL1     0.3143
     33 C         -2.029324   -6.892944   1.650069 C.2        1 UNL1     0.2504
     34 C         -2.203411   -11.518618   2.598541 C.3        1 UNL1     -0.0327
     35 O         -0.345799   -6.792215   3.314227 O.2        1 UNL1     -0.4528
     36 C         2.4149   -4.556565   1.976881 C.3        1 UNL1     0.0854
     37 C         2.366938   -3.512086   0.796083 C.3        1 UNL1     0.0236
     38 C         2.829217   -2.027328   1.187919 C.3        1 UNL1     0.1131
     39 C         2.197999   -1.31644   2.452226 C.3        1 UNL1     0.0200
     40 C         0.557987   -1.408883   2.742491 C.3        1 UNL1     0.0661
     41 C         -0.66997   -1.085078   1.617821 C.3        1 UNL1     0.0091
     42 C         -2.343591   -1.815012   1.44008 C.3        1 UNL1     0.0661
     43 C         -5.663943   -9.623036   -0.569745 C.2        1 UNL1     0.2131
     44 O         -5.986835   -10.713441   -1.005054 O.2        1 UNL1     -0.2851
     45 O         -4.719217   -11.702453   1.057644 O.3        1 UNL1     -0.5056
     46 O         -2.24443   -5.707998   1.525621 O.2        1 UNL1     -0.2836
     47 C         -4.11644   -2.069496   3.417467 C.3        1 UNL1     -0.0566
     48 O         -3.024202   -0.50516   1.298045 O.3        1 UNL1     -0.3909
     49 C         -0.062478   -1.032024   0.233758 C.3        1 UNL1     -0.0577
     50 O         0.244184   -2.574077   3.478409 O.3        1 UNL1     -0.3910
     51 O         2.685415   -4.028608   3.255753 O.3        1 UNL1     -0.3753
     52 C         1.167779   -3.781407   -0.170578 C.3        1 UNL1     -0.0564
     53 O         3.110636   -1.153053   0.001002 O.3        1 UNL1     -0.4608
     54 C         4.203854   -0.339959   -0.146249 C.2        1 UNL1     0.3042
     55 O         5.376328   -0.683803   -0.290871 O.2        1 UNL1     -0.2512
     56 C         3.864665   1.123023   -0.182936 C.3        1 UNL1     0.0332
     57 C         3.187853   -1.557279   3.685255 C.3        1 UNL1     -0.0567
     58 C         0.156561   -7.908463   1.025346 C.3        1 UNL1     0.0210
     59 C         4.002074   -4.283163   3.743071 C.3        1 UNL1     0.0372
     60 C         1.202336   -5.408953   2.112091 C.2        1 UNL1     -0.0208
     61 C         0.505652   -5.755455   3.195286 C.2        1 UNL1     0.0882
     62 H         -3.189939   -3.618904   2.266272 H        1 UNL1     0.0365
     63 H         -4.746878   -4.896225   1.927717 H        1 UNL1     0.0576
     64 H         -7.214645   -3.386009   0.866513 H        1 UNL1     0.0615
     65 H         -6.61233   -6.415917   1.329903 H        1 UNL1     0.0622
     66 H         3.234247   -5.238477   1.709089 H        1 UNL1     0.0645
     67 H         3.185633   -3.827201   0.126008 H        1 UNL1     0.0362
     68 H         3.877501   -2.226347   1.458134 H        1 UNL1     0.0741
     69 H         2.364827   -0.250568   2.371648 H        1 UNL1     0.0359
     70 H         0.446447   -0.583168   3.471061 H        1 UNL1     0.0600
     71 H         -0.840014   -0.009657   1.821571 H        1 UNL1     0.0348
     72 H         -2.023094   -2.038044   2.468114 H        1 UNL1     0.0602
     73 H         0.986083   -5.859721   1.175453 H        1 UNL1     0.0628
     74 H         0.626067   -5.298578   4.17814 H        1 UNL1     0.1022
     75 H         -9.572069   -6.389624   -1.63147 H        1 UNL1     0.0279
     76 H         -10.543061   -6.707242   -0.249589 H        1 UNL1     0.0279
     77 H         -9.952229   -5.042068   -0.641267 H        1 UNL1     0.0279
     78 H         -7.820708   -7.56554   -1.94896 H        1 UNL1     0.1553
     79 H         -6.792759   -5.881712   -2.134076 H        1 UNL1     0.1484
     80 H         -3.265058   -4.788593   -3.028453 H        1 UNL1     0.0317
     81 H         -3.767421   -6.473096   -3.030734 H        1 UNL1     0.0317
     82 H         -5.991536   -5.868942   -4.021702 H        1 UNL1     0.0428
     83 H         -4.64578   -5.336328   -5.005047 H        1 UNL1     0.0428
     84 H         -6.481565   -2.396527   -2.537134 H        1 UNL1     0.0428
     85 H         -7.168741   -3.982118   -2.484098 H        1 UNL1     0.0428
     86 H         -5.614342   -3.360939   -0.634009 H        1 UNL1     0.0317
     87 H         -4.300575   -3.108997   -1.688947 H        1 UNL1     0.0317
     88 H         -5.607351   -2.947184   -5.81885 H        1 UNL1     0.0429
     89 H         -6.875537   -4.150712   -5.575004 H        1 UNL1     0.0429
     90 H         -8.218515   -2.286531   -5.286666 H        1 UNL1     0.0308
     91 H         -7.180192   -3.075493   -2.716908 H        1 UNL1     0.0233
     92 H         -7.303576   -1.297785   -2.721761 H        1 UNL1     0.0233
     93 H         -8.717376   -2.281064   -3.036303 H        1 UNL1     0.0233
     94 H         -7.333678   -0.028782   -4.779106 H        1 UNL1     0.0233
     95 H         -5.709554   -0.723328   -4.660131 H        1 UNL1     0.0233
     96 H         -6.587053   -0.775756   -6.206494 H        1 UNL1     0.0233
     97 H         -2.878614   -12.243914   3.0427 H        1 UNL1     0.0280
     98 H         -1.599493   -12.076433   1.870954 H        1 UNL1     0.0280
     99 H         -1.53974   -11.134219   3.390294 H        1 UNL1     0.0280
     100 H         -5.439754   -11.713542   0.452395 H        1 UNL1     0.2922
     101 H         -3.171471   -1.826019   3.902656 H        1 UNL1     0.0236
     102 H         -4.773443   -2.646071   4.067768 H        1 UNL1     0.0236
     103 H         -4.625308   -1.099059   3.292974 H        1 UNL1     0.0236
     104 H         -3.505005   -0.330765   2.130743 H        1 UNL1     0.2098
     105 H         0.938979   -1.44961   0.166545 H        1 UNL1     0.0234
     106 H         -0.694369   -1.436741   -0.556713 H        1 UNL1     0.0234
     107 H         0.0   0.0   -0.0 H        1 UNL1     0.0234
     108 H         0.389069   -3.338118   2.887632 H        1 UNL1     0.2098
     109 H         0.756218   -4.793346   -0.050959 H        1 UNL1     0.0234
     110 H         0.363008   -3.044726   -0.073683 H        1 UNL1     0.0234
     111 H         1.471769   -3.706671   -1.22317 H        1 UNL1     0.0234
     112 H         3.928478   1.494197   -1.210313 H        1 UNL1     0.0342
     113 H         2.884801   1.327131   0.246075 H        1 UNL1     0.0342
     114 H         4.609848   1.663144   0.417178 H        1 UNL1     0.0342
     115 H         4.184699   -1.135236   3.4972 H        1 UNL1     0.0234
     116 H         2.829079   -1.143782   4.629898 H        1 UNL1     0.0234
     117 H         3.434201   -2.620269   3.850501 H        1 UNL1     0.0234
     118 H         0.070202   -8.96292   0.709642 H        1 UNL1     0.0309
     119 H         0.008159   -7.260849   0.155418 H        1 UNL1     0.0309
     120 H         1.213142   -7.812263   1.298272 H        1 UNL1     0.0309
     121 H         4.438053   -5.065148   3.12196 H        1 UNL1     0.0524
     122 H         4.654477   -3.397283   3.668078 H        1 UNL1     0.0524
     123 H         3.963342   -4.605781   4.779657 H        1 UNL1     0.0524
@<TRIPOS>BOND
     1     1     2    1
     2     1    42    1
     3     2     3    2
     4     3     4    1
     5     4     5    2
     6     5     7    1
     7     6    75    1
     8     6    76    1
     9     6    77    1
    10     7     9   am
    11     9    10    1
    12    10    11    2
    13    10    43    1
    14    11    14    1
    15    11    15    1
    16    12    13   ar
    17    12    27   ar
    18    12    43    1
    19    13    14    1
    20    13    30   ar
    21    14    17    2
    22    15    16    1
    23    16    17    1
    24    16    18    1
    25    16    22    1
    26    18    19    1
    27    19    20    1
    28    20    21    1
    29    21    22    1
    30    23    24    1
    31    23    88    1
    32    23    89    1
    33    24    25    1
    34    24    26    1
    35    24    90    1
    36    25    91    1
    37    25    92    1
    38    25    93    1
    39    26    94    1
    40    26    95    1
    41    26    96    1
    42    27    28   ar
    43    28    29   ar
    44    29    30   ar
    45    29    31    1
    46    30    33    1
    47    31    32    1
    48    32    33    1
    49    32    35    1
    50    34    97    1
    51    34    98    1
    52    34    99    1
    53    35    61    1
    54    36    37    1
    55    36    60    1
    56    37    38    1
    57    38    39    1
    58    39    40    1
    59    40    41    1
    60    41    42    1
    61    45   100    1
    62    47   101    1
    63    47   102    1
    64    47   103    1
    65    48   104    1
    66    49   105    1
    67    49   106    1
    68    49   107    1
    69    50   108    1
    70    51    59    1
    71    52   109    1
    72    52   110    1
    73    52   111    1
    74    53    54    1
    75    54    55    2
    76    54    56    1
    77    56   112    1
    78    56   113    1
    79    56   114    1
    80    57   115    1
    81    57   116    1
    82    57   117    1
    83    58   118    1
    84    58   119    1
    85    58   120    1
    86    59   121    1
    87    59   122    1
    88    59   123    1
    89    60    61    2
    90     1    47    1
    91     1    62    1
    92     2    63    1
    93     3    64    1
    94     4    65    1
    95     5     6    1
    96     7     8    2
    97     9    78    1
    98    15    79    1
    99    18    80    1
   100    18    81    1
   101    19    82    1
   102    19    83    1
   103    20    23    1
   104    21    84    1
   105    21    85    1
   106    22    86    1
   107    22    87    1
   108    27    45    1
   109    28    34    1
   110    32    58    1
   111    33    46    2
   112    36    51    1
   113    36    66    1
   114    37    52    1
   115    37    67    1
   116    38    53    1
   117    38    68    1
   118    42    48    1
   119    42    72    1
   120    43    44    2
   121    60    73    1
   122    61    74    1
   123    39    69    1
   124    39    57    1
   125    40    70    1
   126    40    50    1
   127    41    71    1
   128    41    49    1
