@<TRIPOS>MOLECULE
*****
 123 128 0 0 0
SMALL
GASTEIGER

@<TRIPOS>ATOM
     1 C         5.172001   1.738313   0.477436 C.3        1 UNL1     0.0009
     2 C         6.608161   2.541166   -0.37691 C.2        1 UNL1     -0.0787
     3 C         7.888124   2.440108   -1.045886 C.2        1 UNL1     -0.0649
     4 C         8.766174   3.673161   -1.804152 C.2        1 UNL1     -0.0542
     5 C         9.784391   3.963379   -2.745473 C.2        1 UNL1     0.0115
     6 C         10.909076   3.335312   -3.61377 C.3        1 UNL1     -0.0348
     7 C         9.881229   5.446226   -3.352743 C.2        1 UNL1     0.2441
     8 O         10.707768   6.266305   -2.977471 O.2        1 UNL1     -0.2702
     9 N         9.128436   5.654333   -4.521566 N.am        1 UNL1     -0.2772
     10 C         7.847329   6.043764   -4.20466 C.2        1 UNL1     0.1049
     11 C         7.000296   5.074197   -3.910218 C.2        1 UNL1     0.0801
     12 C         6.555869   7.653576   -2.791165 C.ar        1 UNL1     0.0753
     13 C         5.79564   6.527382   -2.341335 C.ar        1 UNL1     0.0305
     14 C         5.908227   5.221219   -2.986559 C.2        1 UNL1     0.0924
     15 N         7.11977   3.744914   -4.069153 N.pl3        1 UNL1     -0.3170
     16 C         5.849489   3.148471   -3.751513 C.3        1 UNL1     0.1275
     17 N         5.217572   4.105354   -2.7703 N.2        1 UNL1     -0.2557
     18 C         4.993528   3.20886   -5.013014 C.3        1 UNL1     0.0016
     19 C         5.744103   2.522822   -6.143315 C.3        1 UNL1     0.0026
     20 N         6.012394   1.144301   -5.757664 N.3        1 UNL1     -0.3018
     21 C         6.778594   0.982764   -4.520242 C.3        1 UNL1     0.0026
     22 C         6.004149   1.675276   -3.397497 C.3        1 UNL1     0.0016
     23 C         6.452366   0.323464   -6.868202 C.3        1 UNL1     0.0012
     24 C         5.293895   0.076028   -7.847221 C.3        1 UNL1     -0.0339
     25 C         5.323591   1.07324   -9.017154 C.3        1 UNL1     -0.0615
     26 C         5.323934   -1.361337   -8.336974 C.3        1 UNL1     -0.0615
     27 C         6.355204   8.921876   -2.251474 C.ar        1 UNL1     0.1347
     28 C         5.399168   9.193734   -1.289113 C.ar        1 UNL1     0.0342
     29 C         4.696454   8.060892   -0.826482 C.ar        1 UNL1     0.1435
     30 C         4.911959   6.77824   -1.332031 C.ar        1 UNL1     0.0774
     31 O         3.657892   8.176902   0.029636 O.3        1 UNL1     -0.4436
     32 C         2.933314   6.945522   -0.110235 C.3        1 UNL1     0.3143
     33 C         3.943195   5.950144   -0.64463 C.2        1 UNL1     0.2504
     34 C         4.956277   10.56091   -0.847778 C.3        1 UNL1     -0.0327
     35 O         2.575161   6.510028   1.207082 O.2        1 UNL1     -0.4528
     36 C         -0.672867   4.584389   0.819369 C.3        1 UNL1     0.0854
     37 C         -0.983073   3.324121   -0.076743 C.3        1 UNL1     0.0236
     38 C         -1.584198   2.064595   0.713187 C.3        1 UNL1     0.1131
     39 C         -0.856192   1.532627   2.012913 C.3        1 UNL1     0.0200
     40 C         0.804797   1.383674   2.049863 C.3        1 UNL1     0.0661
     41 C         1.759572   0.612453   0.878866 C.3        1 UNL1     0.0091
     42 C         3.466446   0.97129   0.310343 C.3        1 UNL1     0.0661
     43 C         7.502595   7.443517   -3.914483 C.2        1 UNL1     0.2131
     44 O         7.902478   8.340513   -4.634365 O.2        1 UNL1     -0.2851
     45 O         7.16842   9.955144   -2.712426 O.3        1 UNL1     -0.5056
     46 O         3.95704   4.746626   -0.513457 O.2        1 UNL1     -0.2836
     47 C         5.571177   1.308535   1.914771 C.3        1 UNL1     -0.0566
     48 O         3.91231   -0.440708   0.391488 O.3        1 UNL1     -0.3909
     49 C         0.921719   0.381138   -0.35887 C.3        1 UNL1     -0.0577
     50 O         1.408513   2.600437   2.440679 O.3        1 UNL1     -0.3910
     51 O         -0.793764   4.395472   2.211176 O.3        1 UNL1     -0.3753
     52 C         0.058078   3.161081   -1.231892 C.3        1 UNL1     -0.0564
     53 O         -2.191256   1.026532   -0.184717 O.3        1 UNL1     -0.4608
     54 C         -2.427484   -0.279611   0.156043 C.2        1 UNL1     0.3042
     55 O         -1.861576   -1.280071   -0.282895 O.2        1 UNL1     -0.2512
     56 C         -3.46508   -0.442722   1.230056 C.3        1 UNL1     0.0332
     57 C         -1.572589   2.203563   3.275765 C.3        1 UNL1     -0.0567
     58 C         1.855838   7.192437   -1.191719 C.3        1 UNL1     0.0210
     59 C         -1.102622   5.575389   2.951627 C.3        1 UNL1     0.0372
     60 C         0.656825   5.210646   0.585099 C.2        1 UNL1     -0.0208
     61 C         1.572893   5.644311   1.45199 C.2        1 UNL1     0.0882
     62 H         4.698338   2.723497   0.565566 H        1 UNL1     0.0365
     63 H         6.34436   3.595551   -0.27131 H        1 UNL1     0.0576
     64 H         8.343212   1.472236   -1.267754 H        1 UNL1     0.0615
     65 H         8.281876   4.589687   -1.456419 H        1 UNL1     0.0622
     66 H         -1.416773   5.332339   0.51079 H        1 UNL1     0.0645
     67 H         -1.849555   3.635048   -0.685917 H        1 UNL1     0.0362
     68 H         -2.529455   2.503554   1.067203 H        1 UNL1     0.0741
     69 H         -1.189295   0.522288   2.209545 H        1 UNL1     0.0359
     70 H         0.917483   0.723437   2.931027 H        1 UNL1     0.0600
     71 H         1.802149   -0.408643   1.306074 H        1 UNL1     0.0348
     72 H         3.3641   1.460072   1.290104 H        1 UNL1     0.0602
     73 H         0.772452   5.407271   -0.451828 H        1 UNL1     0.0628
     74 H         1.557673   5.434077   2.521947 H        1 UNL1     0.1022
     75 H         10.951671   2.23   -3.460455 H        1 UNL1     0.0279
     76 H         10.792831   3.417939   -4.692069 H        1 UNL1     0.0279
     77 H         11.915617   3.638061   -3.289858 H        1 UNL1     0.0279
     78 H         9.063286   4.78432   -5.045885 H        1 UNL1     0.1553
     79 H         7.78256   3.315322   -4.688099 H        1 UNL1     0.1484
     80 H         4.03174   2.719984   -4.816214 H        1 UNL1     0.0317
     81 H         4.768361   4.245978   -5.28382 H        1 UNL1     0.0317
     82 H         6.675217   3.052109   -6.393902 H        1 UNL1     0.0428
     83 H         5.116765   2.578926   -7.033455 H        1 UNL1     0.0428
     84 H         6.897558   -0.06032   -4.210992 H        1 UNL1     0.0428
     85 H         7.809172   1.34863   -4.626857 H        1 UNL1     0.0428
     86 H         6.522397   1.424184   -2.490657 H        1 UNL1     0.0317
     87 H         5.024046   1.19971   -3.269699 H        1 UNL1     0.0317
     88 H         7.248181   0.863419   -7.397749 H        1 UNL1     0.0429
     89 H         6.883912   -0.62307   -6.518037 H        1 UNL1     0.0429
     90 H         4.342543   0.191088   -7.314394 H        1 UNL1     0.0308
     91 H         6.272555   1.02213   -9.559333 H        1 UNL1     0.0233
     92 H         4.502884   0.878627   -9.711542 H        1 UNL1     0.0233
     93 H         5.202887   2.111254   -8.684299 H        1 UNL1     0.0233
     94 H         4.6267   -1.490545   -9.171843 H        1 UNL1     0.0233
     95 H         6.326647   -1.613881   -8.692995 H        1 UNL1     0.0233
     96 H         5.045134   -2.059453   -7.542699 H        1 UNL1     0.0233
     97 H         4.16264   10.51309   -0.108126 H        1 UNL1     0.0280
     98 H         5.770617   11.128293   -0.378541 H        1 UNL1     0.0280
     99 H         4.584453   11.12701   -1.717475 H        1 UNL1     0.0280
     100 H         6.702124   10.70712   -3.032928 H        1 UNL1     0.2922
     101 H         4.708779   0.876866   2.422303 H        1 UNL1     0.0236
     102 H         6.025112   2.113165   2.492263 H        1 UNL1     0.0236
     103 H         6.325764   0.504306   1.912024 H        1 UNL1     0.0236
     104 H         4.333839   -0.567233   1.263999 H        1 UNL1     0.2098
     105 H         0.709445   1.280191   -0.931981 H        1 UNL1     0.0234
     106 H         1.287785   -0.407891   -1.015646 H        1 UNL1     0.0234
     107 H         0.0   -0.0   0.0 H        1 UNL1     0.0234
     108 H         1.210127   3.258651   1.747017 H        1 UNL1     0.2098
     109 H         1.083656   3.045635   -0.854303 H        1 UNL1     0.0234
     110 H         -0.177824   2.334205   -1.910399 H        1 UNL1     0.0234
     111 H         0.079403   4.043602   -1.885075 H        1 UNL1     0.0234
     112 H         -3.59918   -1.504117   1.459848 H        1 UNL1     0.0342
     113 H         -3.218376   0.123127   2.12716 H        1 UNL1     0.0342
     114 H         -4.419883   -0.058054   0.84594 H        1 UNL1     0.0342
     115 H         -2.64262   1.957508   3.316729 H        1 UNL1     0.0234
     116 H         -1.134226   1.923267   4.23562 H        1 UNL1     0.0234
     117 H         -1.609042   3.305478   3.226814 H        1 UNL1     0.0234
     118 H         0.956839   7.681356   -0.777274 H        1 UNL1     0.0309
     119 H         2.22423   7.779337   -2.03909 H        1 UNL1     0.0309
     120 H         1.464251   6.26112   -1.615292 H        1 UNL1     0.0309
     121 H         -0.280483   6.276809   2.812149 H        1 UNL1     0.0524
     122 H         -2.022341   6.066189   2.592084 H        1 UNL1     0.0524
     123 H         -1.21836   5.338292   4.005422 H        1 UNL1     0.0524
@<TRIPOS>BOND
     1     1     2    1
     2     1    42    1
     3     2     3    2
     4     3     4    1
     5     4     5    2
     6     5     7    1
     7     6    75    1
     8     6    76    1
     9     6    77    1
    10     7     9   am
    11     9    10    1
    12    10    11    2
    13    10    43    1
    14    11    14    1
    15    11    15    1
    16    12    13   ar
    17    12    27   ar
    18    12    43    1
    19    13    14    1
    20    13    30   ar
    21    14    17    2
    22    15    16    1
    23    16    17    1
    24    16    18    1
    25    16    22    1
    26    18    19    1
    27    19    20    1
    28    20    21    1
    29    21    22    1
    30    23    24    1
    31    23    88    1
    32    23    89    1
    33    24    25    1
    34    24    26    1
    35    24    90    1
    36    25    91    1
    37    25    92    1
    38    25    93    1
    39    26    94    1
    40    26    95    1
    41    26    96    1
    42    27    28   ar
    43    28    29   ar
    44    29    30   ar
    45    29    31    1
    46    30    33    1
    47    31    32    1
    48    32    33    1
    49    32    35    1
    50    34    97    1
    51    34    98    1
    52    34    99    1
    53    35    61    1
    54    36    37    1
    55    36    60    1
    56    37    38    1
    57    38    39    1
    58    39    40    1
    59    40    41    1
    60    41    42    1
    61    45   100    1
    62    47   101    1
    63    47   102    1
    64    47   103    1
    65    48   104    1
    66    49   105    1
    67    49   106    1
    68    49   107    1
    69    50   108    1
    70    51    59    1
    71    52   109    1
    72    52   110    1
    73    52   111    1
    74    53    54    1
    75    54    55    2
    76    54    56    1
    77    56   112    1
    78    56   113    1
    79    56   114    1
    80    57   115    1
    81    57   116    1
    82    57   117    1
    83    58   118    1
    84    58   119    1
    85    58   120    1
    86    59   121    1
    87    59   122    1
    88    59   123    1
    89    60    61    2
    90     1    47    1
    91     1    62    1
    92     2    63    1
    93     3    64    1
    94     4    65    1
    95     5     6    1
    96     7     8    2
    97     9    78    1
    98    15    79    1
    99    18    80    1
   100    18    81    1
   101    19    82    1
   102    19    83    1
   103    20    23    1
   104    21    84    1
   105    21    85    1
   106    22    86    1
   107    22    87    1
   108    27    45    1
   109    28    34    1
   110    32    58    1
   111    33    46    2
   112    36    51    1
   113    36    66    1
   114    37    52    1
   115    37    67    1
   116    38    53    1
   117    38    68    1
   118    42    48    1
   119    42    72    1
   120    43    44    2
   121    60    73    1
   122    61    74    1
   123    39    69    1
   124    39    57    1
   125    40    70    1
   126    40    50    1
   127    41    71    1
   128    41    49    1
