@<TRIPOS>MOLECULE
*****
 123 128 0 0 0
SMALL
GASTEIGER

@<TRIPOS>ATOM
     1 C         5.168186   1.746979   0.487018 C.3        1 UNL1     0.0009
     2 C         6.604431   2.552643   -0.364536 C.2        1 UNL1     -0.0787
     3 C         7.885711   2.454053   -1.031355 C.2        1 UNL1     -0.0649
     4 C         8.762944   3.688919   -1.787612 C.2        1 UNL1     -0.0542
     5 C         9.782276   3.981268   -2.727066 C.2        1 UNL1     0.0115
     6 C         10.909524   3.355486   -3.593686 C.3        1 UNL1     -0.0348
     7 C         9.877612   5.464527   -3.333565 C.2        1 UNL1     0.2441
     8 O         10.702099   6.285868   -2.956542 O.2        1 UNL1     -0.2702
     9 N         9.12647   5.671822   -4.503594 N.am        1 UNL1     -0.2772
     10 C         7.844155   6.058927   -4.188729 C.2        1 UNL1     0.1049
     11 C         6.998282   5.087789   -3.896135 C.2        1 UNL1     0.0801
     12 C         6.547514   7.665944   -2.776797 C.ar        1 UNL1     0.0753
     13 C         5.788446   6.538264   -2.328731 C.ar        1 UNL1     0.0305
     14 C         5.90438   5.232561   -2.974292 C.2        1 UNL1     0.0924
     15 N         7.120308   3.758778   -4.055405 N.pl3        1 UNL1     -0.3170
     16 C         5.850509   3.160028   -3.740188 C.3        1 UNL1     0.1275
     17 N         5.215269   4.115425   -2.759672 N.2        1 UNL1     -0.2557
     18 C         4.99661   3.219467   -5.003132 C.3        1 UNL1     0.0016
     19 C         5.750298   2.53518   -6.132421 C.3        1 UNL1     0.0026
     20 N         6.020291   1.156962   -5.746871 N.3        1 UNL1     -0.3018
     21 C         6.784643   0.996233   -4.508202 C.3        1 UNL1     0.0026
     22 C         6.007086   1.686956   -3.386506 C.3        1 UNL1     0.0016
     23 C         6.463574   0.337336   -6.856987 C.3        1 UNL1     0.0012
     24 C         5.307211   0.088316   -7.838093 C.3        1 UNL1     -0.0339
     25 C         5.382128   1.034772   -9.0475 C.3        1 UNL1     -0.0615
     26 C         5.293654   -1.368269   -8.268157 C.3        1 UNL1     -0.0615
     27 C         6.343749   8.933677   -2.236936 C.ar        1 UNL1     0.1347
     28 C         5.385599   9.203502   -1.276107 C.ar        1 UNL1     0.0342
     29 C         4.684036   8.069268   -0.815143 C.ar        1 UNL1     0.1435
     30 C         4.902607   6.787194   -1.320843 C.ar        1 UNL1     0.0774
     31 O         3.643809   8.183147   0.039238 O.3        1 UNL1     -0.4436
     32 C         2.921585   6.950584   -0.102376 C.3        1 UNL1     0.3143
     33 C         3.934086   5.957158   -0.635442 C.2        1 UNL1     0.2504
     34 C         4.939607   10.569736   -0.834977 C.3        1 UNL1     -0.0327
     35 O         2.561919   6.513938   1.214146 O.2        1 UNL1     -0.4528
     36 C         -0.682131   4.582893   0.820077 C.3        1 UNL1     0.0854
     37 C         -0.988639   3.322462   -0.077078 C.3        1 UNL1     0.0236
     38 C         -1.588957   2.061585   0.711307 C.3        1 UNL1     0.1131
     39 C         -0.862271   1.530333   2.012064 C.3        1 UNL1     0.0200
     40 C         0.798906   1.384211   2.051804 C.3        1 UNL1     0.0661
     41 C         1.757009   0.615108   0.882134 C.3        1 UNL1     0.0091
     42 C         3.464238   0.977103   0.316686 C.3        1 UNL1     0.0661
     43 C         7.496525   7.457969   -3.898575 C.2        1 UNL1     0.2131
     44 O         7.896103   8.355943   -4.617404 O.2        1 UNL1     -0.2851
     45 O         7.155981   9.968526   -2.696071 O.3        1 UNL1     -0.5056
     46 O         3.94977   4.753612   -0.504736 O.2        1 UNL1     -0.2836
     47 C         5.565632   1.317298   1.924861 C.3        1 UNL1     -0.0566
     48 O         3.912383   -0.434161   0.398022 O.3        1 UNL1     -0.3909
     49 C         0.921678   0.382865   -0.357132 C.3        1 UNL1     -0.0577
     50 O         1.399863   2.601848   2.44415 O.3        1 UNL1     -0.3910
     51 O         -0.805092   4.393199   2.211597 O.3        1 UNL1     -0.3753
     52 C         0.054771   3.16168   -1.230505 C.3        1 UNL1     -0.0564
     53 O         -2.192693   1.02285   -0.188059 O.3        1 UNL1     -0.4608
     54 C         -2.427265   -0.283835   0.151763 C.2        1 UNL1     0.3042
     55 O         -1.85889   -1.283144   -0.28661 O.2        1 UNL1     -0.2512
     56 C         -3.46642   -0.449165   1.223927 C.3        1 UNL1     0.0332
     57 C         -1.581982   2.199523   3.273957 C.3        1 UNL1     -0.0567
     58 C         1.845544   7.196095   -1.185607 C.3        1 UNL1     0.0210
     59 C         -1.117243   5.572282   2.951997 C.3        1 UNL1     0.0372
     60 C         0.646885   5.211525   0.588345 C.2        1 UNL1     -0.0208
     61 C         1.560719   5.646403   1.456982 C.2        1 UNL1     0.0882
     62 H         4.692684   2.731314   0.574736 H        1 UNL1     0.0365
     63 H         6.338642   3.606531   -0.258959 H        1 UNL1     0.0576
     64 H         8.342837   1.487053   -1.252835 H        1 UNL1     0.0615
     65 H         8.27648   4.604472   -1.440337 H        1 UNL1     0.0622
     66 H         -1.426788   5.329694   0.510526 H        1 UNL1     0.0645
     67 H         -1.854606   3.632153   -0.687612 H        1 UNL1     0.0362
     68 H         -2.535571   2.498778   1.063879 H        1 UNL1     0.0741
     69 H         -1.193978   0.519343   2.207713 H        1 UNL1     0.0359
     70 H         0.911212   0.723808   2.932891 H        1 UNL1     0.0600
     71 H         1.800604   -0.406088   1.308999 H        1 UNL1     0.0348
     72 H         3.359374   1.465308   1.296469 H        1 UNL1     0.0602
     73 H         0.763953   5.408772   -0.448302 H        1 UNL1     0.0628
     74 H         1.544025   5.435706   2.526826 H        1 UNL1     0.1022
     75 H         10.935119   2.246802   -3.462539 H        1 UNL1     0.0279
     76 H         10.808435   3.461616   -4.671455 H        1 UNL1     0.0279
     77 H         11.915786   3.637635   -3.250861 H        1 UNL1     0.0279
     78 H         9.063711   4.801914   -5.028378 H        1 UNL1     0.1553
     79 H         7.784894   3.330577   -4.673388 H        1 UNL1     0.1484
     80 H         4.035326   2.728863   -4.808182 H        1 UNL1     0.0317
     81 H         4.77013   4.256309   -5.273902 H        1 UNL1     0.0317
     82 H         6.680932   3.066165   -6.381195 H        1 UNL1     0.0428
     83 H         5.124393   2.590573   -7.023614 H        1 UNL1     0.0428
     84 H         6.904865   -0.046772   -4.199173 H        1 UNL1     0.0428
     85 H         7.814774   1.363908   -4.6129 H        1 UNL1     0.0428
     86 H         6.524208   1.436381   -2.47888 H        1 UNL1     0.0317
     87 H         5.027583   1.209659   -3.260584 H        1 UNL1     0.0317
     88 H         7.25937   0.878871   -7.384948 H        1 UNL1     0.0429
     89 H         6.896142   -0.6086   -6.506467 H        1 UNL1     0.0429
     90 H         4.355028   0.256888   -7.321232 H        1 UNL1     0.0308
     91 H         6.336659   0.934196   -9.572721 H        1 UNL1     0.0233
     92 H         4.565856   0.834873   -9.745604 H        1 UNL1     0.0233
     93 H         5.286999   2.088741   -8.759515 H        1 UNL1     0.0233
     94 H         4.263437   -1.707036   -8.422192 H        1 UNL1     0.0233
     95 H         5.831402   -1.48379   -9.213379 H        1 UNL1     0.0233
     96 H         5.759891   -2.010784   -7.515982 H        1 UNL1     0.0233
     97 H         4.140594   10.520348   -0.101241 H        1 UNL1     0.0280
     98 H         5.750548   11.135998   -0.358553 H        1 UNL1     0.0280
     99 H         4.574181   11.137802   -1.706102 H        1 UNL1     0.0280
     100 H         6.688947   10.719833   -3.017068 H        1 UNL1     0.2922
     101 H         4.699971   0.895361   2.435015 H        1 UNL1     0.0236
     102 H         6.028286   2.119084   2.499381 H        1 UNL1     0.0236
     103 H         6.31242   0.505819   1.923066 H        1 UNL1     0.0236
     104 H         4.327252   -0.561895   1.273544 H        1 UNL1     0.2098
     105 H         0.708847   1.281786   -0.930241 H        1 UNL1     0.0234
     106 H         1.290223   -0.405267   -1.0136 H        1 UNL1     0.0234
     107 H         0.0   -0.0   0.0 H        1 UNL1     0.0234
     108 H         1.215957   3.255519   1.742252 H        1 UNL1     0.2098
     109 H         1.081349   3.060228   -0.851616 H        1 UNL1     0.0234
     110 H         -0.171881   2.327064   -1.902658 H        1 UNL1     0.0234
     111 H         0.066907   4.039279   -1.89052 H        1 UNL1     0.0234
     112 H         -3.589975   -1.510007   1.462031 H        1 UNL1     0.0342
     113 H         -3.228533   0.126603   2.117093 H        1 UNL1     0.0342
     114 H         -4.424046   -0.077826   0.833766 H        1 UNL1     0.0342
     115 H         -2.651659   1.951617   3.312984 H        1 UNL1     0.0234
     116 H         -1.144787   1.919585   4.234449 H        1 UNL1     0.0234
     117 H         -1.620241   3.301393   3.225392 H        1 UNL1     0.0234
     118 H         0.944374   7.681893   -0.772207 H        1 UNL1     0.0309
     119 H         2.213955   7.785272   -2.031389 H        1 UNL1     0.0309
     120 H         1.457386   6.264318   -1.611319 H        1 UNL1     0.0309
     121 H         -0.27906   6.260301   2.84506 H        1 UNL1     0.0524
     122 H         -2.016298   6.08203   2.567429 H        1 UNL1     0.0524
     123 H         -1.270939   5.32868   3.999437 H        1 UNL1     0.0524
@<TRIPOS>BOND
     1     1     2    1
     2     1    42    1
     3     2     3    2
     4     3     4    1
     5     4     5    2
     6     5     7    1
     7     6    75    1
     8     6    76    1
     9     6    77    1
    10     7     9   am
    11     9    10    1
    12    10    11    2
    13    10    43    1
    14    11    14    1
    15    11    15    1
    16    12    13   ar
    17    12    27   ar
    18    12    43    1
    19    13    14    1
    20    13    30   ar
    21    14    17    2
    22    15    16    1
    23    16    17    1
    24    16    18    1
    25    16    22    1
    26    18    19    1
    27    19    20    1
    28    20    21    1
    29    21    22    1
    30    23    24    1
    31    23    88    1
    32    23    89    1
    33    24    25    1
    34    24    26    1
    35    24    90    1
    36    25    91    1
    37    25    92    1
    38    25    93    1
    39    26    94    1
    40    26    95    1
    41    26    96    1
    42    27    28   ar
    43    28    29   ar
    44    29    30   ar
    45    29    31    1
    46    30    33    1
    47    31    32    1
    48    32    33    1
    49    32    35    1
    50    34    97    1
    51    34    98    1
    52    34    99    1
    53    35    61    1
    54    36    37    1
    55    36    60    1
    56    37    38    1
    57    38    39    1
    58    39    40    1
    59    40    41    1
    60    41    42    1
    61    45   100    1
    62    47   101    1
    63    47   102    1
    64    47   103    1
    65    48   104    1
    66    49   105    1
    67    49   106    1
    68    49   107    1
    69    50   108    1
    70    51    59    1
    71    52   109    1
    72    52   110    1
    73    52   111    1
    74    53    54    1
    75    54    55    2
    76    54    56    1
    77    56   112    1
    78    56   113    1
    79    56   114    1
    80    57   115    1
    81    57   116    1
    82    57   117    1
    83    58   118    1
    84    58   119    1
    85    58   120    1
    86    59   121    1
    87    59   122    1
    88    59   123    1
    89    60    61    2
    90     1    47    1
    91     1    62    1
    92     2    63    1
    93     3    64    1
    94     4    65    1
    95     5     6    1
    96     7     8    2
    97     9    78    1
    98    15    79    1
    99    18    80    1
   100    18    81    1
   101    19    82    1
   102    19    83    1
   103    20    23    1
   104    21    84    1
   105    21    85    1
   106    22    86    1
   107    22    87    1
   108    27    45    1
   109    28    34    1
   110    32    58    1
   111    33    46    2
   112    36    51    1
   113    36    66    1
   114    37    52    1
   115    37    67    1
   116    38    53    1
   117    38    68    1
   118    42    48    1
   119    42    72    1
   120    43    44    2
   121    60    73    1
   122    61    74    1
   123    39    69    1
   124    39    57    1
   125    40    70    1
   126    40    50    1
   127    41    71    1
   128    41    49    1
