@<TRIPOS>MOLECULE
*****
 123 128 0 0 0
SMALL
GASTEIGER

@<TRIPOS>ATOM
     1 C         -1.725185   2.943819   2.441999 C.3        1 UNL1     0.0009
     2 C         -3.001668   4.199236   1.960797 C.2        1 UNL1     -0.0787
     3 C         -3.356805   5.557568   1.607446 C.2        1 UNL1     -0.0649
     4 C         -4.862188   6.140278   1.096929 C.2        1 UNL1     -0.0542
     5 C         -5.533043   7.191458   0.42458 C.2        1 UNL1     0.0115
     6 C         -5.35921   8.616894   -0.168073 C.3        1 UNL1     -0.0348
     7 C         -7.023273   6.940929   -0.117118 C.2        1 UNL1     0.2441
     8 O         -8.01895   7.362484   0.45511 O.2        1 UNL1     -0.2702
     9 N         -7.09659   6.432194   -1.425539 N.am        1 UNL1     -0.2772
     10 C         -7.046321   5.057224   -1.409669 C.2        1 UNL1     0.1049
     11 C         -5.842126   4.51961   -1.338209 C.2        1 UNL1     0.0801
     12 C         -8.050714   3.048184   -0.308631 C.ar        1 UNL1     0.0753
     13 C         -6.710463   2.606915   -0.068593 C.ar        1 UNL1     0.0305
     14 C         -5.564857   3.265153   -0.69258 C.2        1 UNL1     0.0924
     15 N         -4.632738   5.086536   -1.488221 N.pl3        1 UNL1     -0.3170
     16 C         -3.651063   4.034601   -1.486452 C.3        1 UNL1     0.1275
     17 N         -4.276739   2.935281   -0.663198 N.2        1 UNL1     -0.2557
     18 C         -3.561245   3.497555   -2.91166 C.3        1 UNL1     0.0016
     19 C         -3.242016   4.652581   -3.847393 C.3        1 UNL1     0.0026
     20 N         -1.982111   5.254942   -3.434078 N.3        1 UNL1     -0.3018
     21 C         -1.950833   5.746447   -2.055015 C.3        1 UNL1     0.0026
     22 C         -2.269601   4.568956   -1.132087 C.3        1 UNL1     0.0016
     23 C         -1.438549   6.161752   -4.425481 C.3        1 UNL1     0.0012
     24 C         -0.939082   5.382194   -5.652093 C.3        1 UNL1     -0.0339
     25 C         0.296385   6.049972   -6.277992 C.3        1 UNL1     -0.0615
     26 C         -0.662237   3.937559   -5.27372 C.3        1 UNL1     -0.0615
     27 C         -9.143098   2.343444   0.191528 C.ar        1 UNL1     0.1347
     28 C         -9.022177   1.166567   0.908737 C.ar        1 UNL1     0.0342
     29 C         -7.692012   0.777749   1.174531 C.ar        1 UNL1     0.1435
     30 C         -6.587462   1.493376   0.710777 C.ar        1 UNL1     0.0774
     31 O         -7.407771   -0.402868   1.76644 O.3        1 UNL1     -0.4436
     32 C         -6.03199   -0.650455   1.439639 C.3        1 UNL1     0.3143
     33 C         -5.444725   0.713566   1.138344 C.2        1 UNL1     0.2504
     34 C         -10.143297   0.228015   1.258464 C.3        1 UNL1     -0.0327
     35 O         -5.390775   -1.127261   2.629072 O.2        1 UNL1     -0.4528
     36 C         -2.609421   -3.43061   1.459995 C.3        1 UNL1     0.0854
     37 C         -1.401029   -3.123127   0.494197 C.3        1 UNL1     0.0236
     38 C         0.047835   -3.448587   1.099681 C.3        1 UNL1     0.1131
     39 C         0.447579   -2.888119   2.523883 C.3        1 UNL1     0.0200
     40 C         0.085435   -1.315226   2.944949 C.3        1 UNL1     0.0661
     41 C         0.419448   0.064183   2.015823 C.3        1 UNL1     0.0091
     42 C         -0.492836   1.648878   1.867888 C.3        1 UNL1     0.0661
     43 C         -8.241935   4.231592   -1.18341 C.2        1 UNL1     0.2131
     44 O         -9.279387   4.471293   -1.77415 O.2        1 UNL1     -0.2851
     45 O         -10.412421   2.865557   -0.048587 O.3        1 UNL1     -0.5056
     46 O         -4.296115   1.080363   1.247931 O.2        1 UNL1     -0.2836
     47 C         -1.309567   3.138503   3.925017 C.3        1 UNL1     -0.0566
     48 O         0.717106   2.491581   2.026026 O.3        1 UNL1     -0.3909
     49 C         0.782435   -0.368606   0.612816 C.3        1 UNL1     -0.0577
     50 O         -1.216933   -1.228777   3.487249 O.3        1 UNL1     -0.3910
     51 O         -2.267611   -3.782783   2.781574 O.3        1 UNL1     -0.3753
     52 C         -1.668508   -1.860601   -0.388658 C.3        1 UNL1     -0.0564
     53 O         1.135964   -3.485384   0.066749 O.3        1 UNL1     -0.4608
     54 C         2.417173   -3.92392   0.276795 C.2        1 UNL1     0.3042
     55 O         3.425876   -3.236628   0.431672 O.2        1 UNL1     -0.2512
     56 C         2.532838   -5.418509   0.374455 C.3        1 UNL1     0.0332
     57 C         0.144224   -4.035417   3.596197 C.3        1 UNL1     -0.0567
     58 C         -6.035155   -1.490154   0.141014 C.3        1 UNL1     0.0210
     59 C         -3.37842   -4.000925   3.650126 C.3        1 UNL1     0.0372
     60 C         -3.629946   -2.351299   1.553674 C.2        1 UNL1     -0.0208
     61 C         -4.242155   -1.830493   2.617961 C.2        1 UNL1     0.0882
     62 H         -2.506709   2.174486   2.434434 H        1 UNL1     0.0365
     63 H         -3.911237   3.597907   2.020426 H        1 UNL1     0.0576
     64 H         -2.598117   6.333133   1.480958 H        1 UNL1     0.0615
     65 H         -5.551909   5.326876   1.338062 H        1 UNL1     0.0622
     66 H         -3.119466   -4.288415   0.999482 H        1 UNL1     0.0645
     67 H         -1.486546   -3.890352   -0.294861 H        1 UNL1     0.0362
     68 H         -0.047948   -4.537222   1.230907 H        1 UNL1     0.0741
     69 H         1.524807   -2.917158   2.619511 H        1 UNL1     0.0359
     70 H         0.756649   -1.19173   3.816316 H        1 UNL1     0.0600
     71 H         1.413115   0.335624   2.423134 H        1 UNL1     0.0348
     72 H         -0.836418   1.18752   2.805127 H        1 UNL1     0.0602
     73 H         -3.945372   -2.083079   0.576017 H        1 UNL1     0.0628
     74 H         -3.941471   -2.008819   3.650931 H        1 UNL1     0.1022
     75 H         -4.833456   9.282142   0.558606 H        1 UNL1     0.0279
     76 H         -4.73601   8.700608   -1.055588 H        1 UNL1     0.0279
     77 H         -6.315802   9.14518   -0.292758 H        1 UNL1     0.0279
     78 H         -6.299318   6.761662   -1.965802 H        1 UNL1     0.1553
     79 H         -4.483617   5.968613   -1.942793 H        1 UNL1     0.1484
     80 H         -2.786582   2.722368   -2.953463 H        1 UNL1     0.0317
     81 H         -4.500262   3.018667   -3.20926 H        1 UNL1     0.0317
     82 H         -4.050496   5.398225   -3.864332 H        1 UNL1     0.0428
     83 H         -3.184306   4.247781   -4.858262 H        1 UNL1     0.0428
     84 H         -0.970288   6.120873   -1.744938 H        1 UNL1     0.0428
     85 H         -2.621711   6.604749   -1.911639 H        1 UNL1     0.0428
     86 H         -2.107668   4.931375   -0.133879 H        1 UNL1     0.0317
     87 H         -1.508207   3.787533   -1.245015 H        1 UNL1     0.0317
     88 H         -2.24109   6.839331   -4.745026 H        1 UNL1     0.0429
     89 H         -0.641193   6.78527   -4.000953 H        1 UNL1     0.0429
     90 H         -1.735942   5.347336   -6.404432 H        1 UNL1     0.0308
     91 H         1.028847   6.326836   -5.513828 H        1 UNL1     0.0233
     92 H         0.769392   5.384153   -7.003636 H        1 UNL1     0.0233
     93 H         0.04389   6.967154   -6.823757 H        1 UNL1     0.0233
     94 H         0.034426   3.486702   -5.98872 H        1 UNL1     0.0233
     95 H         -0.203644   3.892384   -4.281947 H        1 UNL1     0.0233
     96 H         -1.580844   3.344213   -5.265218 H        1 UNL1     0.0233
     97 H         -10.721419   0.582048   2.106795 H        1 UNL1     0.0280
     98 H         -10.859053   0.112923   0.434023 H        1 UNL1     0.0280
     99 H         -9.73033   -0.762362   1.510866 H        1 UNL1     0.0280
     100 H         -10.650262   2.914037   -0.95782 H        1 UNL1     0.2922
     101 H         -1.768037   2.364383   4.539995 H        1 UNL1     0.0236
     102 H         -1.520997   4.138709   4.301671 H        1 UNL1     0.0236
     103 H         -0.224567   3.006491   4.071784 H        1 UNL1     0.0236
     104 H         0.419933   3.41471   2.146409 H        1 UNL1     0.2098
     105 H         1.717468   0.04471   0.243093 H        1 UNL1     0.0234
     106 H         0.753469   -1.445387   0.446591 H        1 UNL1     0.0234
     107 H         0.0   0.0   0.0 H        1 UNL1     0.0234
     108 H         -1.473355   -2.127455   3.770785 H        1 UNL1     0.2098
     109 H         -0.749945   -1.292214   -0.590871 H        1 UNL1     0.0234
     110 H         -2.170064   -2.094757   -1.333833 H        1 UNL1     0.0234
     111 H         -2.350319   -1.156976   0.107319 H        1 UNL1     0.0234
     112 H         3.573455   -5.699749   0.562519 H        1 UNL1     0.0342
     113 H         1.872798   -5.831477   1.135801 H        1 UNL1     0.0342
     114 H         2.236904   -5.84941   -0.591936 H        1 UNL1     0.0342
     115 H         0.583882   -3.804896   4.576375 H        1 UNL1     0.0234
     116 H         -0.919167   -4.22883   3.750597 H        1 UNL1     0.0234
     117 H         0.634802   -4.996147   3.36323 H        1 UNL1     0.0234
     118 H         -5.994156   -2.573899   0.34795 H        1 UNL1     0.0309
     119 H         -6.894596   -1.280921   -0.5038 H        1 UNL1     0.0309
     120 H         -5.145313   -1.316612   -0.473941 H        1 UNL1     0.0309
     121 H         -3.0438   -3.805991   4.668648 H        1 UNL1     0.0524
     122 H         -4.215724   -3.315139   3.438805 H        1 UNL1     0.0524
     123 H         -3.730104   -5.02484   3.560622 H        1 UNL1     0.0524
@<TRIPOS>BOND
     1     1     2    1
     2     1    42    1
     3     2     3    2
     4     3     4    1
     5     4     5    2
     6     5     7    1
     7     6    75    1
     8     6    76    1
     9     6    77    1
    10     7     9   am
    11     9    10    1
    12    10    11    2
    13    10    43    1
    14    11    14    1
    15    11    15    1
    16    12    13   ar
    17    12    27   ar
    18    12    43    1
    19    13    14    1
    20    13    30   ar
    21    14    17    2
    22    15    16    1
    23    16    17    1
    24    16    18    1
    25    16    22    1
    26    18    19    1
    27    19    20    1
    28    20    21    1
    29    21    22    1
    30    23    24    1
    31    23    88    1
    32    23    89    1
    33    24    25    1
    34    24    26    1
    35    24    90    1
    36    25    91    1
    37    25    92    1
    38    25    93    1
    39    26    94    1
    40    26    95    1
    41    26    96    1
    42    27    28   ar
    43    28    29   ar
    44    29    30   ar
    45    29    31    1
    46    30    33    1
    47    31    32    1
    48    32    33    1
    49    32    35    1
    50    34    97    1
    51    34    98    1
    52    34    99    1
    53    35    61    1
    54    36    37    1
    55    36    60    1
    56    37    38    1
    57    38    39    1
    58    39    40    1
    59    40    41    1
    60    41    42    1
    61    45   100    1
    62    47   101    1
    63    47   102    1
    64    47   103    1
    65    48   104    1
    66    49   105    1
    67    49   106    1
    68    49   107    1
    69    50   108    1
    70    51    59    1
    71    52   109    1
    72    52   110    1
    73    52   111    1
    74    53    54    1
    75    54    55    2
    76    54    56    1
    77    56   112    1
    78    56   113    1
    79    56   114    1
    80    57   115    1
    81    57   116    1
    82    57   117    1
    83    58   118    1
    84    58   119    1
    85    58   120    1
    86    59   121    1
    87    59   122    1
    88    59   123    1
    89    60    61    2
    90     1    47    1
    91     1    62    1
    92     2    63    1
    93     3    64    1
    94     4    65    1
    95     5     6    1
    96     7     8    2
    97     9    78    1
    98    15    79    1
    99    18    80    1
   100    18    81    1
   101    19    82    1
   102    19    83    1
   103    20    23    1
   104    21    84    1
   105    21    85    1
   106    22    86    1
   107    22    87    1
   108    27    45    1
   109    28    34    1
   110    32    58    1
   111    33    46    2
   112    36    51    1
   113    36    66    1
   114    37    52    1
   115    37    67    1
   116    38    53    1
   117    38    68    1
   118    42    48    1
   119    42    72    1
   120    43    44    2
   121    60    73    1
   122    61    74    1
   123    39    69    1
   124    39    57    1
   125    40    70    1
   126    40    50    1
   127    41    71    1
   128    41    49    1
