@<TRIPOS>MOLECULE
*****
 123 128 0 0 0
SMALL
GASTEIGER

@<TRIPOS>ATOM
     1 C         -4.107361   3.038283   -0.973418 C.3        1 UNL1     0.0009
     2 C         -4.473795   4.780845   -1.489401 C.2        1 UNL1     -0.0787
     3 C         -5.031823   6.085241   -1.200949 C.2        1 UNL1     -0.0649
     4 C         -4.949958   7.485038   -2.14975 C.2        1 UNL1     -0.0542
     5 C         -5.057892   8.897631   -2.14676 C.2        1 UNL1     0.0115
     6 C         -5.486266   10.123361   -1.293879 C.3        1 UNL1     -0.0348
     7 C         -4.43369   9.727043   -3.371276 C.2        1 UNL1     0.2441
     8 O         -5.113866   10.19118   -4.275965 O.2        1 UNL1     -0.2702
     9 N         -3.091374   10.108256   -3.200942 N.am        1 UNL1     -0.2772
     10 C         -2.249861   9.118906   -3.655215 C.2        1 UNL1     0.1049
     11 C         -2.007289   8.129699   -2.81447 C.2        1 UNL1     0.0801
     12 C         -1.831296   7.612933   -5.608208 C.ar        1 UNL1     0.0753
     13 C         -1.784617   6.53539   -4.667288 C.ar        1 UNL1     0.0305
     14 C         -1.740219   6.7785   -3.227157 C.2        1 UNL1     0.0924
     15 N         -2.278794   8.025104   -1.502269 N.pl3        1 UNL1     -0.3170
     16 C         -1.655067   6.821895   -1.019045 C.3        1 UNL1     0.1275
     17 N         -1.596483   5.916162   -2.22484 N.2        1 UNL1     -0.2557
     18 C         -0.208648   7.167747   -0.678518 C.3        1 UNL1     0.0016
     19 C         -0.204732   8.31923   0.314286 C.3        1 UNL1     0.0026
     20 N         -0.940501   7.913674   1.503907 N.3        1 UNL1     -0.3018
     21 C         -2.326106   7.502811   1.267988 C.3        1 UNL1     0.0026
     22 C         -2.306042   6.342327   0.271611 C.3        1 UNL1     0.0016
     23 C         -0.745312   8.814756   2.622208 C.3        1 UNL1     0.0012
     24 C         -1.753028   9.973505   2.562488 C.3        1 UNL1     -0.0339
     25 C         -2.642567   10.010354   3.816051 C.3        1 UNL1     -0.0615
     26 C         -1.022367   11.28901   2.356666 C.3        1 UNL1     -0.0615
     27 C         -1.75148   7.378226   -6.97885 C.ar        1 UNL1     0.1347
     28 C         -1.584   6.117609   -7.523686 C.ar        1 UNL1     0.0342
     29 C         -1.589801   5.067614   -6.581008 C.ar        1 UNL1     0.1435
     30 C         -1.705235   5.284591   -5.207393 C.ar        1 UNL1     0.0774
     31 O         -1.326851   3.7932   -6.943958 O.3        1 UNL1     -0.4436
     32 C         -0.958276   3.136708   -5.721647 C.3        1 UNL1     0.3143
     33 C         -1.588739   3.96575   -4.621002 C.2        1 UNL1     0.2504
     34 C         -1.240172   5.81446   -8.955462 C.3        1 UNL1     -0.0327
     35 O         -1.611332   1.861317   -5.709431 O.2        1 UNL1     -0.4528
     36 C         0.653147   -0.448347   -3.723059 C.3        1 UNL1     0.0854
     37 C         1.181298   -0.296496   -2.244709 C.3        1 UNL1     0.0236
     38 C         0.86678   -1.541024   -1.283473 C.3        1 UNL1     0.1131
     39 C         -0.608059   -2.104565   -1.185795 C.3        1 UNL1     0.0200
     40 C         -1.905215   -1.061877   -1.073426 C.3        1 UNL1     0.0661
     41 C         -2.046509   0.235126   0.010746 C.3        1 UNL1     0.0091
     42 C         -2.889414   1.854026   -0.173855 C.3        1 UNL1     0.0661
     43 C         -1.877466   8.996083   -5.072462 C.2        1 UNL1     0.2131
     44 O         -1.533427   9.975959   -5.708243 O.2        1 UNL1     -0.2851
     45 O         -1.850515   8.478088   -7.828517 O.3        1 UNL1     -0.5056
     46 O         -1.937009   3.612108   -3.516693 O.2        1 UNL1     -0.2836
     47 C         -5.401118   2.181136   -1.011803 C.3        1 UNL1     -0.0566
     48 O         -3.573584   1.776186   1.139526 O.3        1 UNL1     -0.3909
     49 C         -0.690487   0.510785   0.621246 C.3        1 UNL1     -0.0577
     50 O         -2.344324   -0.667989   -2.357855 O.3        1 UNL1     -0.3910
     51 O         -0.171881   -1.564288   -3.970923 O.3        1 UNL1     -0.3753
     52 C         1.094503   1.182561   -1.744902 C.3        1 UNL1     -0.0564
     53 O         1.665239   -1.535208   -0.012743 O.3        1 UNL1     -0.4608
     54 C         1.225364   -1.074525   1.200604 C.2        1 UNL1     0.3042
     55 O         1.819726   -0.326034   1.975416 O.2        1 UNL1     -0.2512
     56 C         -0.166731   -1.521919   1.545018 C.3        1 UNL1     0.0332
     57 C         -0.724108   -3.331356   -2.205448 C.3        1 UNL1     -0.0567
     58 C         0.580187   3.248772   -5.611637 C.3        1 UNL1     0.0210
     59 C         0.43589   -2.599535   -4.742119 C.3        1 UNL1     0.0372
     60 C         -0.061123   0.741453   -4.260976 C.2        1 UNL1     -0.0208
     61 C         -1.199463   0.827669   -4.950536 C.2        1 UNL1     0.0882
     62 H         -3.599443   2.881378   -1.932642 H        1 UNL1     0.0365
     63 H         -4.119141   4.766233   -2.522105 H        1 UNL1     0.0576
     64 H         -5.438061   6.329149   -0.216781 H        1 UNL1     0.0615
     65 H         -4.611931   7.120418   -3.123542 H        1 UNL1     0.0622
     66 H         1.562346   -0.55451   -4.331444 H        1 UNL1     0.0645
     67 H         2.278484   -0.367204   -2.343412 H        1 UNL1     0.0362
     68 H         1.444271   -2.322884   -1.799924 H        1 UNL1     0.0741
     69 H         -0.697008   -2.691987   -0.281676 H        1 UNL1     0.0359
     70 H         -2.683809   -1.763729   -0.718104 H        1 UNL1     0.0600
     71 H         -2.563741   -0.269948   0.849988 H        1 UNL1     0.0348
     72 H         -3.325342   1.196095   -0.939628 H        1 UNL1     0.0602
     73 H         0.546285   1.602314   -4.129743 H        1 UNL1     0.0628
     74 H         -1.905631   0.006827   -5.080086 H        1 UNL1     0.1022
     75 H         -6.583435   10.305993   -1.393382 H        1 UNL1     0.0279
     76 H         -5.360509   10.033045   -0.217265 H        1 UNL1     0.0279
     77 H         -5.073695   11.069995   -1.672522 H        1 UNL1     0.0279
     78 H         -2.89752   10.244662   -2.211047 H        1 UNL1     0.1553
     79 H         -2.476407   8.810692   -0.91004 H        1 UNL1     0.1484
     80 H         0.283178   6.279595   -0.263716 H        1 UNL1     0.0317
     81 H         0.350183   7.443585   -1.579225 H        1 UNL1     0.0317
     82 H         -0.63121   9.234456   -0.122052 H        1 UNL1     0.0428
     83 H         0.836221   8.550788   0.541987 H        1 UNL1     0.0428
     84 H         -2.830949   7.127713   2.163671 H        1 UNL1     0.0428
     85 H         -2.952208   8.344732   0.94167 H        1 UNL1     0.0428
     86 H         -3.317288   5.982832   0.225431 H        1 UNL1     0.0317
     87 H         -1.754296   5.494249   0.695212 H        1 UNL1     0.0317
     88 H         -0.915469   8.251018   3.548783 H        1 UNL1     0.0429
     89 H         0.28613   9.188422   2.657903 H        1 UNL1     0.0429
     90 H         -2.394749   9.846449   1.682565 H        1 UNL1     0.0308
     91 H         -2.613543   9.057208   4.352495 H        1 UNL1     0.0233
     92 H         -2.327755   10.810773   4.489721 H        1 UNL1     0.0233
     93 H         -3.694249   10.208498   3.576177 H        1 UNL1     0.0233
     94 H         -0.580159   11.627071   3.300065 H        1 UNL1     0.0233
     95 H         -0.213068   11.157656   1.632965 H        1 UNL1     0.0233
     96 H         -1.69812   12.068151   1.992982 H        1 UNL1     0.0233
     97 H         -0.371467   5.168085   -9.037819 H        1 UNL1     0.0280
     98 H         -2.054023   5.29173   -9.474746 H        1 UNL1     0.0280
     99 H         -1.023767   6.753945   -9.489907 H        1 UNL1     0.0280
     100 H         -2.576842   9.048467   -7.647574 H        1 UNL1     0.2922
     101 H         -5.367333   1.428968   -0.22392 H        1 UNL1     0.0236
     102 H         -5.59484   1.740976   -1.98941 H        1 UNL1     0.0236
     103 H         -6.30075   2.779014   -0.789549 H        1 UNL1     0.0236
     104 H         -2.947603   2.097457   1.817687 H        1 UNL1     0.2098
     105 H         -0.410167   1.561015   0.637011 H        1 UNL1     0.0234
     106 H         -0.533333   0.063072   1.602461 H        1 UNL1     0.0234
     107 H         0.0   0.0   0.0 H        1 UNL1     0.0234
     108 H         -1.68886   -0.033556   -2.706611 H        1 UNL1     0.2098
     109 H         1.699746   1.86497   -2.357853 H        1 UNL1     0.0234
     110 H         0.06695   1.557195   -1.685503 H        1 UNL1     0.0234
     111 H         1.475392   1.286501   -0.720174 H        1 UNL1     0.0234
     112 H         -0.80783   -0.650459   1.709016 H        1 UNL1     0.0342
     113 H         -0.586233   -2.17784   0.783684 H        1 UNL1     0.0342
     114 H         -0.122176   -2.088914   2.48507 H        1 UNL1     0.0342
     115 H         0.237068   -3.847883   -2.334005 H        1 UNL1     0.0234
     116 H         -1.463471   -4.080769   -1.916013 H        1 UNL1     0.0234
     117 H         -0.940382   -3.022391   -3.242612 H        1 UNL1     0.0234
     118 H         1.07774   2.272509   -5.74713 H        1 UNL1     0.0309
     119 H         1.009717   3.970197   -6.313956 H        1 UNL1     0.0309
     120 H         0.908538   3.563424   -4.614999 H        1 UNL1     0.0309
     121 H         0.27004   -2.367819   -5.793859 H        1 UNL1     0.0524
     122 H         1.52556   -2.65546   -4.582336 H        1 UNL1     0.0524
     123 H         -0.00637   -3.560692   -4.495791 H        1 UNL1     0.0524
@<TRIPOS>BOND
     1     1     2    1
     2     1    42    1
     3     2     3    2
     4     3     4    1
     5     4     5    2
     6     5     7    1
     7     6    75    1
     8     6    76    1
     9     6    77    1
    10     7     9   am
    11     9    10    1
    12    10    11    2
    13    10    43    1
    14    11    14    1
    15    11    15    1
    16    12    13   ar
    17    12    27   ar
    18    12    43    1
    19    13    14    1
    20    13    30   ar
    21    14    17    2
    22    15    16    1
    23    16    17    1
    24    16    18    1
    25    16    22    1
    26    18    19    1
    27    19    20    1
    28    20    21    1
    29    21    22    1
    30    23    24    1
    31    23    88    1
    32    23    89    1
    33    24    25    1
    34    24    26    1
    35    24    90    1
    36    25    91    1
    37    25    92    1
    38    25    93    1
    39    26    94    1
    40    26    95    1
    41    26    96    1
    42    27    28   ar
    43    28    29   ar
    44    29    30   ar
    45    29    31    1
    46    30    33    1
    47    31    32    1
    48    32    33    1
    49    32    35    1
    50    34    97    1
    51    34    98    1
    52    34    99    1
    53    35    61    1
    54    36    37    1
    55    36    60    1
    56    37    38    1
    57    38    39    1
    58    39    40    1
    59    40    41    1
    60    41    42    1
    61    45   100    1
    62    47   101    1
    63    47   102    1
    64    47   103    1
    65    48   104    1
    66    49   105    1
    67    49   106    1
    68    49   107    1
    69    50   108    1
    70    51    59    1
    71    52   109    1
    72    52   110    1
    73    52   111    1
    74    53    54    1
    75    54    55    2
    76    54    56    1
    77    56   112    1
    78    56   113    1
    79    56   114    1
    80    57   115    1
    81    57   116    1
    82    57   117    1
    83    58   118    1
    84    58   119    1
    85    58   120    1
    86    59   121    1
    87    59   122    1
    88    59   123    1
    89    60    61    2
    90     1    47    1
    91     1    62    1
    92     2    63    1
    93     3    64    1
    94     4    65    1
    95     5     6    1
    96     7     8    2
    97     9    78    1
    98    15    79    1
    99    18    80    1
   100    18    81    1
   101    19    82    1
   102    19    83    1
   103    20    23    1
   104    21    84    1
   105    21    85    1
   106    22    86    1
   107    22    87    1
   108    27    45    1
   109    28    34    1
   110    32    58    1
   111    33    46    2
   112    36    51    1
   113    36    66    1
   114    37    52    1
   115    37    67    1
   116    38    53    1
   117    38    68    1
   118    42    48    1
   119    42    72    1
   120    43    44    2
   121    60    73    1
   122    61    74    1
   123    39    69    1
   124    39    57    1
   125    40    70    1
   126    40    50    1
   127    41    71    1
   128    41    49    1
