@<TRIPOS>MOLECULE
*****
 123 128 0 0 0
SMALL
GASTEIGER

@<TRIPOS>ATOM
     1 C         5.157204   1.76986   0.519727 C.3        1 UNL1     0.0009
     2 C         6.594463   2.583934   -0.322061 C.2        1 UNL1     -0.0787
     3 C         7.879918   2.492664   -0.981851 C.2        1 UNL1     -0.0649
     4 C         8.755653   3.733149   -1.730611 C.2        1 UNL1     -0.0542
     5 C         9.778886   4.032169   -2.663703 C.2        1 UNL1     0.0115
     6 C         10.913882   3.413417   -3.525243 C.3        1 UNL1     -0.0348
     7 C         9.87075   5.517114   -3.266602 C.2        1 UNL1     0.2441
     8 O         10.689283   6.341474   -2.88325 O.2        1 UNL1     -0.2702
     9 N         9.125248   5.723367   -4.440416 N.am        1 UNL1     -0.2772
     10 C         7.8394   6.103877   -4.131987 C.2        1 UNL1     0.1049
     11 C         6.996409   5.128227   -3.846162 C.2        1 UNL1     0.0801
     12 C         6.527394   7.701931   -2.724081 C.ar        1 UNL1     0.0753
     13 C         5.771058   6.56982   -2.282619 C.ar        1 UNL1     0.0305
     14 C         5.896678   5.266015   -2.930202 C.2        1 UNL1     0.0924
     15 N         7.125494   3.80013   -4.007476 N.pl3        1 UNL1     -0.3170
     16 C         5.856733   3.194855   -3.700652 C.3        1 UNL1     0.1275
     17 N         5.211562   4.145257   -2.721768 N.2        1 UNL1     -0.2557
     18 C         5.009686   3.252972   -4.968262 C.3        1 UNL1     0.0016
     19 C         5.772881   2.574535   -6.094692 C.3        1 UNL1     0.0026
     20 N         6.047092   1.196781   -5.710463 N.3        1 UNL1     -0.3018
     21 C         6.805201   1.03701   -4.46784 C.3        1 UNL1     0.0026
     22 C         6.018151   1.72179   -3.349125 C.3        1 UNL1     0.0016
     23 C         6.500411   0.381529   -6.819747 C.3        1 UNL1     0.0012
     24 C         5.350753   0.129205   -7.807864 C.3        1 UNL1     -0.0339
     25 C         5.377564   1.134971   -8.970521 C.3        1 UNL1     -0.0615
     26 C         5.398681   -1.304254   -8.30754 C.3        1 UNL1     -0.0615
     27 C         6.314717   8.967581   -2.182769 C.ar        1 UNL1     0.1347
     28 C         5.349935   9.230966   -1.226802 C.ar        1 UNL1     0.0342
     29 C         4.65106   8.09254   -0.772133 C.ar        1 UNL1     0.1435
     30 C         4.878418   6.812547   -1.279229 C.ar        1 UNL1     0.0774
     31 O         3.605526   8.199822   0.076605 O.3        1 UNL1     -0.4436
     32 C         2.889836   6.964229   -0.071612 C.3        1 UNL1     0.3143
     33 C         3.909918   5.976611   -0.601007 C.2        1 UNL1     0.2504
     34 C         4.895135   10.594199   -0.785382 C.3        1 UNL1     -0.0327
     35 O         2.5248   6.52318   1.241962 O.2        1 UNL1     -0.4528
     36 C         -0.707989   4.577969   0.825647 C.3        1 UNL1     0.0854
     37 C         -1.003593   3.318004   -0.075813 C.3        1 UNL1     0.0236
     38 C         -1.602481   2.052723   0.706582 C.3        1 UNL1     0.1131
     39 C         -0.880666   1.522131   2.010317 C.3        1 UNL1     0.0200
     40 C         0.78092   1.383616   2.059117 C.3        1 UNL1     0.0661
     41 C         1.749146   0.621394   0.893284 C.3        1 UNL1     0.0091
     42 C         3.457832   0.992463   0.338212 C.3        1 UNL1     0.0661
     43 C         7.483655   7.500687   -3.840918 C.2        1 UNL1     0.2131
     44 O         7.883101   8.401997   -4.555636 O.2        1 UNL1     -0.2851
     45 O         7.124709   10.007131   -2.63519 O.3        1 UNL1     -0.5056
     46 O         3.930451   4.772881   -0.47269 O.2        1 UNL1     -0.2836
     47 C         5.548544   1.339027   1.958899 C.3        1 UNL1     -0.0566
     48 O         3.912054   -0.416879   0.419169 O.3        1 UNL1     -0.3909
     49 C         0.921887   0.387869   -0.351144 C.3        1 UNL1     -0.0577
     50 O         1.374005   2.603201   2.457347 O.3        1 UNL1     -0.3910
     51 O         -0.837894   4.384809   2.216059 O.3        1 UNL1     -0.3753
     52 C         0.047023   3.164456   -1.22367 C.3        1 UNL1     -0.0564
     53 O         -2.196322   1.013081   -0.198308 O.3        1 UNL1     -0.4608
     54 C         -2.414208   -0.298659   0.133043 C.2        1 UNL1     0.3042
     55 O         -1.83516   -1.287993   -0.313902 O.2        1 UNL1     -0.2512
     56 C         -3.448182   -0.483913   1.206958 C.3        1 UNL1     0.0332
     57 C         -1.610562   2.185352   3.269509 C.3        1 UNL1     -0.0567
     58 C         1.818778   7.207013   -1.160382 C.3        1 UNL1     0.0210
     59 C         -1.190548   5.554398   2.953325 C.3        1 UNL1     0.0372
     60 C         0.619379   5.213225   0.602701 C.2        1 UNL1     -0.0208
     61 C         1.526285   5.650518   1.477367 C.2        1 UNL1     0.0882
     62 H         4.676654   2.751799   0.606788 H        1 UNL1     0.0365
     63 H         6.323198   3.636358   -0.215816 H        1 UNL1     0.0576
     64 H         8.342764   1.528253   -1.202741 H        1 UNL1     0.0615
     65 H         8.263   4.645715   -1.3842 H        1 UNL1     0.0622
     66 H         -1.454349   5.321958   0.513441 H        1 UNL1     0.0645
     67 H         -1.86754   3.624956   -0.690578 H        1 UNL1     0.0362
     68 H         -2.553081   2.484795   1.054712 H        1 UNL1     0.0741
     69 H         -1.208775   0.509212   2.202013 H        1 UNL1     0.0359
     70 H         0.89133   0.721905   2.939462 H        1 UNL1     0.0600
     71 H         1.795076   -0.400477   1.318286 H        1 UNL1     0.0348
     72 H         3.345193   1.478135   1.318391 H        1 UNL1     0.0602
     73 H         0.741361   5.413171   -0.432862 H        1 UNL1     0.0628
     74 H         1.50455   5.437517   2.546664 H        1 UNL1     0.1022
     75 H         10.962376   2.308017   -3.374332 H        1 UNL1     0.0279
     76 H         10.805031   3.498001   -4.604161 H        1 UNL1     0.0279
     77 H         11.916075   3.721728   -3.193195 H        1 UNL1     0.0279
     78 H         9.069479   4.854273   -4.967334 H        1 UNL1     0.1553
     79 H         7.795525   3.376297   -4.622583 H        1 UNL1     0.1484
     80 H         4.049606   2.75752   -4.779742 H        1 UNL1     0.0317
     81 H         4.779925   4.289317   -5.238171 H        1 UNL1     0.0317
     82 H         6.702426   3.110338   -6.337125 H        1 UNL1     0.0428
     83 H         5.151749   2.628887   -6.989282 H        1 UNL1     0.0428
     84 H         6.928521   -0.006069   -4.160285 H        1 UNL1     0.0428
     85 H         7.834188   1.409666   -4.565974 H        1 UNL1     0.0428
     86 H         6.531316   1.47172   -2.439117 H        1 UNL1     0.0317
     87 H         5.04018   1.239703   -3.229706 H        1 UNL1     0.0317
     88 H         7.296643   0.927841   -7.3421 H        1 UNL1     0.0429
     89 H         6.935384   -0.563123   -6.468741 H        1 UNL1     0.0429
     90 H         4.394922   0.230711   -7.280325 H        1 UNL1     0.0308
     91 H         6.330407   1.097453   -9.506977 H        1 UNL1     0.0233
     92 H         4.563304   0.936902   -9.671491 H        1 UNL1     0.0233
     93 H         5.24408   2.169298   -8.631132 H        1 UNL1     0.0233
     94 H         4.706948   -1.435047   -9.146727 H        1 UNL1     0.0233
     95 H         6.40578   -1.543474   -8.66037 H        1 UNL1     0.0233
     96 H         5.123572   -2.010928   -7.519571 H        1 UNL1     0.0233
     97 H         4.098505   10.539464   -0.049436 H        1 UNL1     0.0280
     98 H         5.703193   11.166726   -0.311555 H        1 UNL1     0.0280
     99 H         4.523181   11.158962   -1.655892 H        1 UNL1     0.0280
     100 H         6.656003   10.756415   -2.958472 H        1 UNL1     0.2922
     101 H         4.685206   0.900634   2.459014 H        1 UNL1     0.0236
     102 H         5.993105   2.145072   2.541687 H        1 UNL1     0.0236
     103 H         6.308228   0.539607   1.959728 H        1 UNL1     0.0236
     104 H         4.327964   -0.542912   1.294443 H        1 UNL1     0.2098
     105 H         0.708114   1.286988   -0.923593 H        1 UNL1     0.0234
     106 H         1.297771   -0.397179   -1.007145 H        1 UNL1     0.0234
     107 H         0.0   -0.0   0.0 H        1 UNL1     0.0234
     108 H         1.175934   3.262056   1.764205 H        1 UNL1     0.2098
     109 H         1.070516   3.054569   -0.838833 H        1 UNL1     0.0234
     110 H         -0.178632   2.337802   -1.90592 H        1 UNL1     0.0234
     111 H         0.067531   4.048726   -1.87451 H        1 UNL1     0.0234
     112 H         -3.567439   -1.548714   1.429042 H        1 UNL1     0.0342
     113 H         -3.208186   0.078633   2.10795 H        1 UNL1     0.0342
     114 H         -4.40863   -0.109559   0.826745 H        1 UNL1     0.0342
     115 H         -2.67928   1.932418   3.301998 H        1 UNL1     0.0234
     116 H         -1.177483   1.905441   4.231871 H        1 UNL1     0.0234
     117 H         -1.653659   3.287133   3.222995 H        1 UNL1     0.0234
     118 H         0.913672   7.689186   -0.751362 H        1 UNL1     0.0309
     119 H         2.189641   7.798354   -2.003578 H        1 UNL1     0.0309
     120 H         1.436238   6.274295   -1.589108 H        1 UNL1     0.0309
     121 H         -0.388789   6.280678   2.822723 H        1 UNL1     0.0524
     122 H         -2.120949   6.017028   2.58405 H        1 UNL1     0.0524
     123 H         -1.310218   5.313393   4.005794 H        1 UNL1     0.0524
@<TRIPOS>BOND
     1     1     2    1
     2     1    42    1
     3     2     3    2
     4     3     4    1
     5     4     5    2
     6     5     7    1
     7     6    75    1
     8     6    76    1
     9     6    77    1
    10     7     9   am
    11     9    10    1
    12    10    11    2
    13    10    43    1
    14    11    14    1
    15    11    15    1
    16    12    13   ar
    17    12    27   ar
    18    12    43    1
    19    13    14    1
    20    13    30   ar
    21    14    17    2
    22    15    16    1
    23    16    17    1
    24    16    18    1
    25    16    22    1
    26    18    19    1
    27    19    20    1
    28    20    21    1
    29    21    22    1
    30    23    24    1
    31    23    88    1
    32    23    89    1
    33    24    25    1
    34    24    26    1
    35    24    90    1
    36    25    91    1
    37    25    92    1
    38    25    93    1
    39    26    94    1
    40    26    95    1
    41    26    96    1
    42    27    28   ar
    43    28    29   ar
    44    29    30   ar
    45    29    31    1
    46    30    33    1
    47    31    32    1
    48    32    33    1
    49    32    35    1
    50    34    97    1
    51    34    98    1
    52    34    99    1
    53    35    61    1
    54    36    37    1
    55    36    60    1
    56    37    38    1
    57    38    39    1
    58    39    40    1
    59    40    41    1
    60    41    42    1
    61    45   100    1
    62    47   101    1
    63    47   102    1
    64    47   103    1
    65    48   104    1
    66    49   105    1
    67    49   106    1
    68    49   107    1
    69    50   108    1
    70    51    59    1
    71    52   109    1
    72    52   110    1
    73    52   111    1
    74    53    54    1
    75    54    55    2
    76    54    56    1
    77    56   112    1
    78    56   113    1
    79    56   114    1
    80    57   115    1
    81    57   116    1
    82    57   117    1
    83    58   118    1
    84    58   119    1
    85    58   120    1
    86    59   121    1
    87    59   122    1
    88    59   123    1
    89    60    61    2
    90     1    47    1
    91     1    62    1
    92     2    63    1
    93     3    64    1
    94     4    65    1
    95     5     6    1
    96     7     8    2
    97     9    78    1
    98    15    79    1
    99    18    80    1
   100    18    81    1
   101    19    82    1
   102    19    83    1
   103    20    23    1
   104    21    84    1
   105    21    85    1
   106    22    86    1
   107    22    87    1
   108    27    45    1
   109    28    34    1
   110    32    58    1
   111    33    46    2
   112    36    51    1
   113    36    66    1
   114    37    52    1
   115    37    67    1
   116    38    53    1
   117    38    68    1
   118    42    48    1
   119    42    72    1
   120    43    44    2
   121    60    73    1
   122    61    74    1
   123    39    69    1
   124    39    57    1
   125    40    70    1
   126    40    50    1
   127    41    71    1
   128    41    49    1
