@<TRIPOS>MOLECULE
*****
 123 128 0 0 0
SMALL
GASTEIGER

@<TRIPOS>ATOM
     1 C         4.977892   2.228394   0.516335 C.3        1 UNL1     0.0009
     2 C         6.365312   3.101342   -0.349728 C.2        1 UNL1     -0.0787
     3 C         7.676307   3.076336   -0.963499 C.2        1 UNL1     -0.0649
     4 C         8.463319   4.328196   -1.788007 C.2        1 UNL1     -0.0542
     5 C         9.488012   4.644458   -2.713782 C.2        1 UNL1     0.0115
     6 C         10.703645   4.06587   -3.488893 C.3        1 UNL1     -0.0348
     7 C         9.467737   6.078383   -3.435196 C.2        1 UNL1     0.2441
     8 O         10.195047   7.002774   -3.098968 O.2        1 UNL1     -0.2702
     9 N         8.748747   6.12021   -4.642447 N.am        1 UNL1     -0.2772
     10 C         7.423876   6.404069   -4.402732 C.2        1 UNL1     0.1049
     11 C         6.662105   5.380945   -4.06047 C.2        1 UNL1     0.0801
     12 C         5.924993   7.982128   -3.169682 C.ar        1 UNL1     0.0753
     13 C         5.257985   6.824187   -2.656961 C.ar        1 UNL1     0.0305
     14 C         5.522741   5.48979   -3.190195 C.2        1 UNL1     0.0924
     15 N         6.915284   4.061762   -4.107193 N.pl3        1 UNL1     -0.3170
     16 C         5.695797   3.36867   -3.786679 C.3        1 UNL1     0.1275
     17 N         4.933849   4.330991   -2.908559 N.2        1 UNL1     -0.2557
     18 C         4.892324   3.246586   -5.077891 C.3        1 UNL1     0.0016
     19 C         5.752602   2.553236   -6.122295 C.3        1 UNL1     0.0026
     20 N         6.135382   1.241907   -5.617395 N.3        1 UNL1     -0.3018
     21 C         6.860322   1.252896   -4.34511 C.3        1 UNL1     0.0026
     22 C         5.976005   1.949722   -3.309585 C.3        1 UNL1     0.0016
     23 C         6.698875   0.385577   -6.642001 C.3        1 UNL1     0.0012
     24 C         5.612124   -0.0501   -7.637449 C.3        1 UNL1     -0.0339
     25 C         5.866229   -1.473619   -8.160021 C.3        1 UNL1     -0.0615
     26 C         4.240126   0.073997   -6.997917 C.3        1 UNL1     -0.0615
     27 C         5.580762   9.262106   -2.74157 C.ar        1 UNL1     0.1347
     28 C         4.563051   9.511257   -1.838111 C.ar        1 UNL1     0.0342
     29 C         3.953336   8.353406   -1.310104 C.ar        1 UNL1     0.1435
     30 C         4.312254   7.06329   -1.702531 C.ar        1 UNL1     0.0774
     31 O         2.873028   8.431579   -0.502744 O.3        1 UNL1     -0.4436
     32 C         2.276609   7.127378   -0.567697 C.3        1 UNL1     0.3143
     33 C         3.399159   6.198738   -0.984497 C.2        1 UNL1     0.2504
     34 C         3.972615   10.857755   -1.524376 C.3        1 UNL1     -0.0327
     35 O         1.906317   6.761349   0.767278 O.2        1 UNL1     -0.4528
     36 C         -1.122436   4.4993   0.423942 C.3        1 UNL1     0.0854
     37 C         -1.271893   3.149218   -0.377597 C.3        1 UNL1     0.0236
     38 C         -1.782313   1.900967   0.490208 C.3        1 UNL1     0.1131
     39 C         -1.062438   1.54547   1.853172 C.3        1 UNL1     0.0200
     40 C         0.602106   1.565085   1.959692 C.3        1 UNL1     0.0661
     41 C         1.675361   0.804319   0.888726 C.3        1 UNL1     0.0091
     42 C         3.362492   1.285602   0.352668 C.3        1 UNL1     0.0661
     43 C         6.934346   7.780964   -4.238794 C.2        1 UNL1     0.2131
     44 O         7.276466   8.655013   -5.014505 O.2        1 UNL1     -0.2851
     45 O         6.309856   10.332247   -3.256019 O.3        1 UNL1     -0.5056
     46 O         3.522902   5.016214   -0.75607 O.2        1 UNL1     -0.2836
     47 C         5.355101   1.952307   1.996697 C.3        1 UNL1     -0.0566
     48 O         3.938006   -0.06481   0.563114 O.3        1 UNL1     -0.3909
     49 C         0.916893   0.396462   -0.354605 C.3        1 UNL1     -0.0577
     50 O         1.06908   2.862147   2.271602 O.3        1 UNL1     -0.3910
     51 O         -1.283617   4.40714   1.821425 O.3        1 UNL1     -0.3753
     52 C         -0.171798   3.001602   -1.478938 C.3        1 UNL1     -0.0564
     53 O         -2.248237   0.741789   -0.341385 O.3        1 UNL1     -0.4608
     54 C         -3.370867   -0.007186   -0.103332 C.2        1 UNL1     0.3042
     55 O         -3.427437   -1.130056   0.396471 O.2        1 UNL1     -0.2512
     56 C         -4.649527   0.695044   -0.461958 C.3        1 UNL1     0.0332
     57 C         -1.892904   2.237437   3.03202 C.3        1 UNL1     -0.0567
     58 C         1.227296   7.182273   -1.702359 C.3        1 UNL1     0.0210
     59 C         -2.496494   4.966715   2.323095 C.3        1 UNL1     0.0372
     60 C         0.149732   5.234279   0.186129 C.2        1 UNL1     -0.0208
     61 C         0.982302   5.822059   1.046413 C.2        1 UNL1     0.0882
     62 H         4.408523   3.165657   0.508043 H        1 UNL1     0.0365
     63 H         5.99726   4.129394   -0.338925 H        1 UNL1     0.0576
     64 H         8.231219   2.144103   -1.09047 H        1 UNL1     0.0615
     65 H         7.878944   5.216293   -1.532522 H        1 UNL1     0.0622
     66 H         -1.920937   5.143865   0.030272 H        1 UNL1     0.0645
     67 H         -2.137575   3.324913   -1.039628 H        1 UNL1     0.0362
     68 H         -2.779519   2.270092   0.774548 H        1 UNL1     0.0741
     69 H         -1.305052   0.525271   2.119143 H        1 UNL1     0.0359
     70 H         0.740145   0.989126   2.89472 H        1 UNL1     0.0600
     71 H         1.797595   -0.171569   1.398293 H        1 UNL1     0.0348
     72 H         3.172191   1.835873   1.285568 H        1 UNL1     0.0602
     73 H         0.289867   5.360906   -0.858656 H        1 UNL1     0.0628
     74 H         0.941924   5.694421   2.128687 H        1 UNL1     0.1022
     75 H         11.364669   3.483184   -2.80292 H        1 UNL1     0.0279
     76 H         10.481179   3.342615   -4.270225 H        1 UNL1     0.0279
     77 H         11.39288   4.846451   -3.842938 H        1 UNL1     0.0279
     78 H         8.789742   5.210223   -5.096671 H        1 UNL1     0.1553
     79 H         7.641932   3.653534   -4.666001 H        1 UNL1     0.1484
     80 H         3.974429   2.681461   -4.875734 H        1 UNL1     0.0317
     81 H         4.580331   4.232333   -5.439298 H        1 UNL1     0.0317
     82 H         6.638397   3.15127   -6.382363 H        1 UNL1     0.0428
     83 H         5.161135   2.478164   -7.035301 H        1 UNL1     0.0428
     84 H         7.065641   0.253672   -3.948615 H        1 UNL1     0.0428
     85 H         7.854608   1.709747   -4.445101 H        1 UNL1     0.0428
     86 H         6.476996   1.821828   -2.36797 H        1 UNL1     0.0317
     87 H         5.041548   1.39067   -3.177874 H        1 UNL1     0.0317
     88 H         7.460938   0.959297   -7.185508 H        1 UNL1     0.0429
     89 H         7.204042   -0.483742   -6.2017 H        1 UNL1     0.0429
     90 H         5.608672   0.639397   -8.489972 H        1 UNL1     0.0308
     91 H         6.117644   -2.15785   -7.344105 H        1 UNL1     0.0233
     92 H         4.988925   -1.853273   -8.688992 H        1 UNL1     0.0233
     93 H         6.696075   -1.513742   -8.875968 H        1 UNL1     0.0233
     94 H         3.522383   -0.571653   -7.515428 H        1 UNL1     0.0233
     95 H         4.285352   -0.242593   -5.952121 H        1 UNL1     0.0233
     96 H         3.872001   1.102935   -7.039636 H        1 UNL1     0.0233
     97 H         3.153928   10.788245   -0.814341 H        1 UNL1     0.0280
     98 H         4.707005   11.536147   -1.070822 H        1 UNL1     0.0280
     99 H         3.589143   11.31732   -2.450035 H        1 UNL1     0.0280
     100 H         7.243942   10.225469   -3.214733 H        1 UNL1     0.2922
     101 H         4.829088   2.651261   2.646643 H        1 UNL1     0.0236
     102 H         6.430114   1.959181   2.173565 H        1 UNL1     0.0236
     103 H         5.02185   0.955273   2.329953 H        1 UNL1     0.0236
     104 H         4.407229   -0.055161   1.420265 H        1 UNL1     0.2098
     105 H         0.685828   1.217075   -1.029153 H        1 UNL1     0.0234
     106 H         1.359224   -0.432937   -0.906299 H        1 UNL1     0.0234
     107 H         0.0   -0.0   0.0 H        1 UNL1     0.0234
     108 H         1.902129   2.99658   1.779946 H        1 UNL1     0.2098
     109 H         -0.219131   3.807315   -2.224791 H        1 UNL1     0.0234
     110 H         0.842131   2.940815   -1.069064 H        1 UNL1     0.0234
     111 H         -0.28719   2.066781   -2.043509 H        1 UNL1     0.0234
     112 H         -5.504594   0.053292   -0.228807 H        1 UNL1     0.0342
     113 H         -4.73925   1.660706   0.033311 H        1 UNL1     0.0342
     114 H         -4.649526   0.875526   -1.545744 H        1 UNL1     0.0342
     115 H         -2.690911   2.885202   2.643726 H        1 UNL1     0.0234
     116 H         -2.352233   1.530464   3.725746 H        1 UNL1     0.0234
     117 H         -1.30152   2.958382   3.622312 H        1 UNL1     0.0234
     118 H         0.194696   7.130248   -1.315011 H        1 UNL1     0.0309
     119 H         1.327331   8.068112   -2.337562 H        1 UNL1     0.0309
     120 H         1.288892   6.319012   -2.373993 H        1 UNL1     0.0309
     121 H         -2.321666   5.258151   3.3584 H        1 UNL1     0.0524
     122 H         -2.799953   5.871347   1.770291 H        1 UNL1     0.0524
     123 H         -3.298066   4.23546   2.26979 H        1 UNL1     0.0524
@<TRIPOS>BOND
     1     1     2    1
     2     1    42    1
     3     2     3    2
     4     3     4    1
     5     4     5    2
     6     5     7    1
     7     6    75    1
     8     6    76    1
     9     6    77    1
    10     7     9   am
    11     9    10    1
    12    10    11    2
    13    10    43    1
    14    11    14    1
    15    11    15    1
    16    12    13   ar
    17    12    27   ar
    18    12    43    1
    19    13    14    1
    20    13    30   ar
    21    14    17    2
    22    15    16    1
    23    16    17    1
    24    16    18    1
    25    16    22    1
    26    18    19    1
    27    19    20    1
    28    20    21    1
    29    21    22    1
    30    23    24    1
    31    23    88    1
    32    23    89    1
    33    24    25    1
    34    24    26    1
    35    24    90    1
    36    25    91    1
    37    25    92    1
    38    25    93    1
    39    26    94    1
    40    26    95    1
    41    26    96    1
    42    27    28   ar
    43    28    29   ar
    44    29    30   ar
    45    29    31    1
    46    30    33    1
    47    31    32    1
    48    32    33    1
    49    32    35    1
    50    34    97    1
    51    34    98    1
    52    34    99    1
    53    35    61    1
    54    36    37    1
    55    36    60    1
    56    37    38    1
    57    38    39    1
    58    39    40    1
    59    40    41    1
    60    41    42    1
    61    45   100    1
    62    47   101    1
    63    47   102    1
    64    47   103    1
    65    48   104    1
    66    49   105    1
    67    49   106    1
    68    49   107    1
    69    50   108    1
    70    51    59    1
    71    52   109    1
    72    52   110    1
    73    52   111    1
    74    53    54    1
    75    54    55    2
    76    54    56    1
    77    56   112    1
    78    56   113    1
    79    56   114    1
    80    57   115    1
    81    57   116    1
    82    57   117    1
    83    58   118    1
    84    58   119    1
    85    58   120    1
    86    59   121    1
    87    59   122    1
    88    59   123    1
    89    60    61    2
    90     1    47    1
    91     1    62    1
    92     2    63    1
    93     3    64    1
    94     4    65    1
    95     5     6    1
    96     7     8    2
    97     9    78    1
    98    15    79    1
    99    18    80    1
   100    18    81    1
   101    19    82    1
   102    19    83    1
   103    20    23    1
   104    21    84    1
   105    21    85    1
   106    22    86    1
   107    22    87    1
   108    27    45    1
   109    28    34    1
   110    32    58    1
   111    33    46    2
   112    36    51    1
   113    36    66    1
   114    37    52    1
   115    37    67    1
   116    38    53    1
   117    38    68    1
   118    42    48    1
   119    42    72    1
   120    43    44    2
   121    60    73    1
   122    61    74    1
   123    39    69    1
   124    39    57    1
   125    40    70    1
   126    40    50    1
   127    41    71    1
   128    41    49    1
