@<TRIPOS>MOLECULE
*****
 123 128 0 0 0
SMALL
GASTEIGER

@<TRIPOS>ATOM
     1 C         1.024973   -3.141608   -3.231489 C.3        1 UNL1     0.0009
     2 C         2.655825   -3.729227   -3.888803 C.2        1 UNL1     -0.0787
     3 C         3.607099   -3.837079   -4.974848 C.2        1 UNL1     -0.0649
     4 C         5.174876   -4.474259   -4.925511 C.2        1 UNL1     -0.0542
     5 C         6.435698   -4.50693   -5.570753 C.2        1 UNL1     0.0115
     6 C         7.196773   -4.102108   -6.863118 C.3        1 UNL1     -0.0348
     7 C         7.716063   -5.018626   -4.748669 C.2        1 UNL1     0.2441
     8 O         8.192328   -6.136898   -4.887108 O.2        1 UNL1     -0.2702
     9 N         8.410305   -4.012943   -4.053845 N.am        1 UNL1     -0.2772
     10 C         7.876163   -3.841005   -2.79748 C.2        1 UNL1     0.1049
     11 C         6.808983   -3.066863   -2.719683 C.2        1 UNL1     0.0801
     12 C         7.159871   -5.098965   -0.757432 C.ar        1 UNL1     0.0753
     13 C         5.926862   -4.37693   -0.840873 C.ar        1 UNL1     0.0305
     14 C         5.764171   -3.242782   -1.747677 C.2        1 UNL1     0.0924
     15 N         6.271014   -2.242799   -3.635127 N.pl3        1 UNL1     -0.3170
     16 C         5.218192   -1.500897   -2.993723 C.3        1 UNL1     0.1275
     17 N         4.739568   -2.405949   -1.884884 N.2        1 UNL1     -0.2557
     18 C         5.863426   -0.298958   -2.310555 C.3        1 UNL1     0.0016
     19 C         6.644194   0.48985   -3.349677 C.3        1 UNL1     0.0026
     20 N         5.728898   0.913317   -4.400361 N.3        1 UNL1     -0.3018
     21 C         5.012996   -0.171105   -5.075552 C.3        1 UNL1     0.0026
     22 C         4.231985   -0.947387   -4.013807 C.3        1 UNL1     0.0016
     23 C         6.301633   1.915228   -5.277169 C.3        1 UNL1     0.0012
     24 C         7.134659   1.249658   -6.383895 C.3        1 UNL1     -0.0339
     25 C         6.835088   1.865376   -7.76056 C.3        1 UNL1     -0.0615
     26 C         8.612693   1.332295   -6.04424 C.3        1 UNL1     -0.0615
     27 C         7.347347   -6.09969   0.193105 C.ar        1 UNL1     0.1347
     28 C         6.392894   -6.438549   1.135572 C.ar        1 UNL1     0.0342
     29 C         5.169279   -5.748363   1.003003 C.ar        1 UNL1     0.1435
     30 C         4.954338   -4.768791   0.032714 C.ar        1 UNL1     0.0774
     31 O         4.179804   -5.887083   1.912235 O.3        1 UNL1     -0.4436
     32 C         3.348534   -4.732129   1.722642 C.3        1 UNL1     0.3143
     33 C         3.618869   -4.278306   0.302368 C.2        1 UNL1     0.2504
     34 C         6.611786   -7.317249   2.335602 C.3        1 UNL1     -0.0327
     35 O         1.986681   -5.175587   1.766839 O.2        1 UNL1     -0.4528
     36 C         -0.015152   -2.254362   3.133296 C.3        1 UNL1     0.0854
     37 C         -0.130559   -0.781085   2.582246 C.3        1 UNL1     0.0236
     38 C         -1.627633   -0.280741   2.299098 C.3        1 UNL1     0.1131
     39 C         -2.601638   -1.171804   1.427553 C.3        1 UNL1     0.0200
     40 C         -2.057304   -1.897522   0.027742 C.3        1 UNL1     0.0661
     41 C         -1.211025   -1.129093   -1.225629 C.3        1 UNL1     0.0091
     42 C         0.075712   -1.774236   -2.362951 C.3        1 UNL1     0.0661
     43 C         8.264473   -4.685746   -1.65819 C.2        1 UNL1     0.2131
     44 O         9.437896   -4.925059   -1.437862 O.2        1 UNL1     -0.2851
     45 O         8.560252   -6.785294   0.177375 O.3        1 UNL1     -0.5056
     46 O         2.887953   -3.668625   -0.445899 O.2        1 UNL1     -0.2836
     47 C         -0.127268   -4.026903   -3.777908 C.3        1 UNL1     -0.0566
     48 O         -0.558708   -1.21493   -3.581066 O.3        1 UNL1     -0.3909
     49 C         -0.731127   0.218904   -0.735632 C.3        1 UNL1     -0.0577
     50 O         -1.469881   -3.151873   0.309276 O.3        1 UNL1     -0.3910
     51 O         -1.209381   -3.003453   3.143876 O.3        1 UNL1     -0.3753
     52 C         1.059906   -0.419167   1.635273 C.3        1 UNL1     -0.0564
     53 O         -1.740311   1.204878   2.118641 O.3        1 UNL1     -0.4608
     54 C         -2.91271   1.911736   2.057313 C.2        1 UNL1     0.3042
     55 O         -3.701517   1.969584   1.11483 O.2        1 UNL1     -0.2512
     56 C         -3.247689   2.632645   3.331987 C.3        1 UNL1     0.0332
     57 C         -3.4767   -2.055327   2.43345 C.3        1 UNL1     -0.0567
     58 C         3.870389   -3.65253   2.699199 C.3        1 UNL1     0.0210
     59 C         -2.293127   -2.393851   3.843694 C.3        1 UNL1     0.0372
     60 C         1.014054   -3.096784   2.465298 C.2        1 UNL1     -0.0208
     61 C         0.950933   -4.35577   2.029736 C.2        1 UNL1     0.0882
     62 H         1.29504   -3.550031   -2.250181 H        1 UNL1     0.0365
     63 H         3.031678   -4.289165   -3.029923 H        1 UNL1     0.0576
     64 H         3.439505   -3.341856   -5.933896 H        1 UNL1     0.0615
     65 H         5.209155   -5.008547   -3.972178 H        1 UNL1     0.0622
     66 H         0.321645   -2.134709   4.17267 H        1 UNL1     0.0645
     67 H         0.152703   -0.150106   3.442588 H        1 UNL1     0.0362
     68 H         -2.0318   -0.321566   3.322086 H        1 UNL1     0.0741
     69 H         -3.415419   -0.553353   1.073027 H        1 UNL1     0.0359
     70 H         -3.025667   -2.145949   -0.44725 H        1 UNL1     0.0600
     71 H         -2.056663   -0.834547   -1.877623 H        1 UNL1     0.0348
     72 H         -0.442273   -2.656386   -1.959444 H        1 UNL1     0.0602
     73 H         1.943405   -2.583448   2.471647 H        1 UNL1     0.0628
     74 H         0.028886   -4.930574   1.936632 H        1 UNL1     0.1022
     75 H         6.911065   -4.769492   -7.711648 H        1 UNL1     0.0279
     76 H         6.984174   -3.112587   -7.261514 H        1 UNL1     0.0279
     77 H         8.278637   -4.288403   -6.795553 H        1 UNL1     0.0279
     78 H         8.318114   -3.128715   -4.549545 H        1 UNL1     0.1553
     79 H         6.768676   -1.898871   -4.435739 H        1 UNL1     0.1484
     80 H         5.079398   0.313321   -1.848841 H        1 UNL1     0.0317
     81 H         6.528359   -0.619217   -1.501266 H        1 UNL1     0.0317
     82 H         7.478063   -0.096035   -3.763576 H        1 UNL1     0.0428
     83 H         7.09748   1.341169   -2.840915 H        1 UNL1     0.0428
     84 H         4.274363   0.177721   -5.803943 H        1 UNL1     0.0428
     85 H         5.690985   -0.80362   -5.665105 H        1 UNL1     0.0428
     86 H         3.620065   -1.644088   -4.556162 H        1 UNL1     0.0317
     87 H         3.499725   -0.288735   -3.531035 H        1 UNL1     0.0317
     88 H         5.478207   2.470214   -5.745415 H        1 UNL1     0.0429
     89 H         6.90044   2.642599   -4.714021 H        1 UNL1     0.0429
     90 H         6.894959   0.180335   -6.420005 H        1 UNL1     0.0308
     91 H         6.549084   2.917724   -7.671867 H        1 UNL1     0.0233
     92 H         7.704252   1.784089   -8.417489 H        1 UNL1     0.0233
     93 H         6.012998   1.354686   -8.276506 H        1 UNL1     0.0233
     94 H         9.214741   0.983881   -6.890397 H        1 UNL1     0.0233
     95 H         8.890994   2.369357   -5.836844 H        1 UNL1     0.0233
     96 H         8.856398   0.720111   -5.171424 H        1 UNL1     0.0233
     97 H         5.675473   -7.658966   2.76662 H        1 UNL1     0.0280
     98 H         7.176854   -8.2249   2.086356 H        1 UNL1     0.0280
     99 H         7.16343   -6.756548   3.10787 H        1 UNL1     0.0280
     100 H         8.564148   -7.561897   -0.354127 H        1 UNL1     0.2922
     101 H         -0.817749   -3.414949   -4.357912 H        1 UNL1     0.0236
     102 H         -0.637694   -4.594168   -3.000309 H        1 UNL1     0.0236
     103 H         0.236444   -4.788095   -4.488184 H        1 UNL1     0.0236
     104 H         -0.371705   -0.255899   -3.597194 H        1 UNL1     0.2098
     105 H         -0.260999   0.833108   -1.499533 H        1 UNL1     0.0234
     106 H         -1.477469   0.797862   -0.191842 H        1 UNL1     0.0234
     107 H         0.0   0.0   0.0 H        1 UNL1     0.0234
     108 H         -0.886332   -3.031793   1.083109 H        1 UNL1     0.2098
     109 H         0.756171   0.25934   0.8259 H        1 UNL1     0.0234
     110 H         1.918648   0.005346   2.166398 H        1 UNL1     0.0234
     111 H         1.467612   -1.309965   1.139088 H        1 UNL1     0.0234
     112 H         -2.3397   3.061634   3.766579 H        1 UNL1     0.0342
     113 H         -4.008212   3.397506   3.182202 H        1 UNL1     0.0342
     114 H         -3.648744   1.899673   4.045481 H        1 UNL1     0.0342
     115 H         -2.951257   -2.23588   3.381341 H        1 UNL1     0.0234
     116 H         -4.449128   -1.621385   2.674543 H        1 UNL1     0.0234
     117 H         -3.642444   -3.088124   2.081598 H        1 UNL1     0.0234
     118 H         4.895046   -3.869757   3.048336 H        1 UNL1     0.0309
     119 H         3.842074   -2.642536   2.278115 H        1 UNL1     0.0309
     120 H         3.290791   -3.61025   3.627846 H        1 UNL1     0.0309
     121 H         -2.004041   -2.310535   4.890997 H        1 UNL1     0.0524
     122 H         -2.508572   -1.376484   3.476836 H        1 UNL1     0.0524
     123 H         -3.189741   -2.999892   3.749407 H        1 UNL1     0.0524
@<TRIPOS>BOND
     1     1     2    1
     2     1    42    1
     3     2     3    2
     4     3     4    1
     5     4     5    2
     6     5     7    1
     7     6    75    1
     8     6    76    1
     9     6    77    1
    10     7     9   am
    11     9    10    1
    12    10    11    2
    13    10    43    1
    14    11    14    1
    15    11    15    1
    16    12    13   ar
    17    12    27   ar
    18    12    43    1
    19    13    14    1
    20    13    30   ar
    21    14    17    2
    22    15    16    1
    23    16    17    1
    24    16    18    1
    25    16    22    1
    26    18    19    1
    27    19    20    1
    28    20    21    1
    29    21    22    1
    30    23    24    1
    31    23    88    1
    32    23    89    1
    33    24    25    1
    34    24    26    1
    35    24    90    1
    36    25    91    1
    37    25    92    1
    38    25    93    1
    39    26    94    1
    40    26    95    1
    41    26    96    1
    42    27    28   ar
    43    28    29   ar
    44    29    30   ar
    45    29    31    1
    46    30    33    1
    47    31    32    1
    48    32    33    1
    49    32    35    1
    50    34    97    1
    51    34    98    1
    52    34    99    1
    53    35    61    1
    54    36    37    1
    55    36    60    1
    56    37    38    1
    57    38    39    1
    58    39    40    1
    59    40    41    1
    60    41    42    1
    61    45   100    1
    62    47   101    1
    63    47   102    1
    64    47   103    1
    65    48   104    1
    66    49   105    1
    67    49   106    1
    68    49   107    1
    69    50   108    1
    70    51    59    1
    71    52   109    1
    72    52   110    1
    73    52   111    1
    74    53    54    1
    75    54    55    2
    76    54    56    1
    77    56   112    1
    78    56   113    1
    79    56   114    1
    80    57   115    1
    81    57   116    1
    82    57   117    1
    83    58   118    1
    84    58   119    1
    85    58   120    1
    86    59   121    1
    87    59   122    1
    88    59   123    1
    89    60    61    2
    90     1    47    1
    91     1    62    1
    92     2    63    1
    93     3    64    1
    94     4    65    1
    95     5     6    1
    96     7     8    2
    97     9    78    1
    98    15    79    1
    99    18    80    1
   100    18    81    1
   101    19    82    1
   102    19    83    1
   103    20    23    1
   104    21    84    1
   105    21    85    1
   106    22    86    1
   107    22    87    1
   108    27    45    1
   109    28    34    1
   110    32    58    1
   111    33    46    2
   112    36    51    1
   113    36    66    1
   114    37    52    1
   115    37    67    1
   116    38    53    1
   117    38    68    1
   118    42    48    1
   119    42    72    1
   120    43    44    2
   121    60    73    1
   122    61    74    1
   123    39    69    1
   124    39    57    1
   125    40    70    1
   126    40    50    1
   127    41    71    1
   128    41    49    1
