@<TRIPOS>MOLECULE
*****
 123 128 0 0 0
SMALL
GASTEIGER

@<TRIPOS>ATOM
     1 C         4.971904   2.238961   0.528179 C.3        1 UNL1     0.0009
     2 C         6.359132   3.115688   -0.334366 C.2        1 UNL1     -0.0787
     3 C         7.671403   3.09408   -0.945532 C.2        1 UNL1     -0.0649
     4 C         8.457312   4.348365   -1.767403 C.2        1 UNL1     -0.0542
     5 C         9.483158   4.667662   -2.690858 C.2        1 UNL1     0.0115
     6 C         10.701606   4.092402   -3.464023 C.3        1 UNL1     -0.0348
     7 C         9.461177   6.102152   -3.411097 C.2        1 UNL1     0.2441
     8 O         10.185781   7.02785   -3.072632 O.2        1 UNL1     -0.2702
     9 N         8.744513   6.143428   -4.619749 N.am        1 UNL1     -0.2772
     10 C         7.418545   6.424176   -4.382446 C.2        1 UNL1     0.1049
     11 C         6.658339   5.399091   -4.042576 C.2        1 UNL1     0.0801
     12 C         5.913736   7.997892   -3.151065 C.ar        1 UNL1     0.0753
     13 C         5.248249   6.838055   -2.64066 C.ar        1 UNL1     0.0305
     14 C         5.517001   5.504696   -3.174492 C.2        1 UNL1     0.0924
     15 N         6.914508   4.080507   -4.089908 N.pl3        1 UNL1     -0.3170
     16 C         5.695907   3.384469   -3.772423 C.3        1 UNL1     0.1275
     17 N         4.930092   4.344369   -2.895016 N.2        1 UNL1     -0.2557
     18 C         4.895288   3.26172   -5.065344 C.3        1 UNL1     0.0016
     19 C         5.759173   2.571148   -6.108609 C.3        1 UNL1     0.0026
     20 N         6.143822   1.260233   -5.604054 N.3        1 UNL1     -0.3018
     21 C         6.86619   1.271731   -4.330311 C.3        1 UNL1     0.0026
     22 C         5.978275   1.965734   -3.29597 C.3        1 UNL1     0.0016
     23 C         6.711241   0.406013   -6.628254 C.3        1 UNL1     0.0012
     24 C         5.627443   -0.0312   -7.626243 C.3        1 UNL1     -0.0339
     25 C         5.885718   -1.453713   -8.14951 C.3        1 UNL1     -0.0615
     26 C         4.253899   0.089342   -6.989354 C.3        1 UNL1     -0.0615
     27 C         5.56584   9.276747   -2.72256 C.ar        1 UNL1     0.1347
     28 C         4.545779   9.522896   -1.820929 C.ar        1 UNL1     0.0342
     29 C         3.937554   8.363261   -1.295124 C.ar        1 UNL1     0.1435
     30 C         4.300088   7.07427   -1.687923 C.ar        1 UNL1     0.0774
     31 O         2.855465   8.438377   -0.489863 O.3        1 UNL1     -0.4436
     32 C         2.262043   7.132926   -0.557112 C.3        1 UNL1     0.3143
     33 C         3.38746   6.207106   -0.97245 C.2        1 UNL1     0.2504
     34 C         3.951762   10.867828   -1.507238 C.3        1 UNL1     -0.0327
     35 O         1.889885   6.76495   0.776808 O.2        1 UNL1     -0.4528
     36 C         -1.1332   4.496553   0.425497 C.3        1 UNL1     0.0854
     37 C         -1.278088   3.146829   -0.377482 C.3        1 UNL1     0.0236
     38 C         -1.7875   1.896723   0.488243 C.3        1 UNL1     0.1131
     39 C         -1.069574   1.541648   1.852344 C.3        1 UNL1     0.0200
     40 C         0.594707   1.564824   1.962213 C.3        1 UNL1     0.0661
     41 C         1.67177   0.807326   0.892754 C.3        1 UNL1     0.0091
     42 C         3.358908   1.292766   0.360482 C.3        1 UNL1     0.0661
     43 C         6.925665   7.799852   -4.218324 C.2        1 UNL1     0.2131
     44 O         7.267416   8.67531   -4.992609 O.2        1 UNL1     -0.2851
     45 O         6.29361   10.348923   -3.234643 O.3        1 UNL1     -0.5056
     46 O         3.513342   5.024662   -0.744776 O.2        1 UNL1     -0.2836
     47 C         5.346756   1.962443   2.009059 C.3        1 UNL1     -0.0566
     48 O         3.936964   -0.056558   0.570937 O.3        1 UNL1     -0.3909
     49 C         0.916687   0.398864   -0.352438 C.3        1 UNL1     -0.0577
     50 O         1.058207   2.862643   2.276154 O.3        1 UNL1     -0.3910
     51 O         -1.296973   4.402852   1.822576 O.3        1 UNL1     -0.3753
     52 C         -0.175472   3.002563   -1.476743 C.3        1 UNL1     -0.0564
     53 O         -2.249214   0.737233   -0.345262 O.3        1 UNL1     -0.4608
     54 C         -2.055708   -0.585539   -0.044 C.2        1 UNL1     0.3042
     55 O         -1.225892   -1.34975   -0.535147 O.2        1 UNL1     -0.2512
     56 C         -2.948099   -1.088912   1.054621 C.3        1 UNL1     0.0332
     57 C         -1.903913   2.230787   3.030112 C.3        1 UNL1     -0.0567
     58 C         1.214882   7.186483   -1.693825 C.3        1 UNL1     0.0210
     59 C         -2.512076   4.959337   2.32229 C.3        1 UNL1     0.0372
     60 C         0.137824   5.234524   0.190853 C.2        1 UNL1     -0.0208
     61 C         0.967379   5.823397   1.053298 C.2        1 UNL1     0.0882
     62 H         4.400495   3.174978   0.51954 H        1 UNL1     0.0365
     63 H         5.988802   4.14292   -0.323429 H        1 UNL1     0.0576
     64 H         8.228615   2.163176   -1.072181 H        1 UNL1     0.0615
     65 H         7.870478   5.23496   -1.512337 H        1 UNL1     0.0622
     66 H         -1.932326   5.139699   0.030774 H        1 UNL1     0.0645
     67 H         -2.142828   3.321186   -1.041096 H        1 UNL1     0.0362
     68 H         -2.786081   2.263417   0.770898 H        1 UNL1     0.0741
     69 H         -1.310478   0.520693   2.116965 H        1 UNL1     0.0359
     70 H         0.73214   0.988375   2.897028 H        1 UNL1     0.0600
     71 H         1.795127   -0.168724   1.401738 H        1 UNL1     0.0348
     72 H         3.165533   1.841825   1.293464 H        1 UNL1     0.0602
     73 H         0.27977   5.362347   -0.853542 H        1 UNL1     0.0628
     74 H         0.925117   5.694751   2.13538 H        1 UNL1     0.1022
     75 H         11.362534   3.510585   -2.777221 H        1 UNL1     0.0279
     76 H         10.482292   3.369326   -4.246411 H        1 UNL1     0.0279
     77 H         11.389832   4.874795   -3.816027 H        1 UNL1     0.0279
     78 H         8.788414   5.23392   -5.07466 H        1 UNL1     0.1553
     79 H         7.643166   3.67435   -4.647605 H        1 UNL1     0.1484
     80 H         3.978233   2.694411   -4.865502 H        1 UNL1     0.0317
     81 H         4.581854   4.247087   -5.42654 H        1 UNL1     0.0317
     82 H         6.644171   3.171345   -6.366397 H        1 UNL1     0.0428
     83 H         5.169699   2.495555   -7.022861 H        1 UNL1     0.0428
     84 H         7.072909   0.272623   -3.934251 H        1 UNL1     0.0428
     85 H         7.859668   1.730847   -4.427926 H        1 UNL1     0.0428
     86 H         6.477662   1.838139   -2.353462 H        1 UNL1     0.0317
     87 H         5.044787   1.404521   -3.166602 H        1 UNL1     0.0317
     88 H         7.473128   0.981866   -7.169749 H        1 UNL1     0.0429
     89 H         7.217435   -0.462569   -6.187678 H        1 UNL1     0.0429
     90 H         5.624181   0.659012   -8.478188 H        1 UNL1     0.0308
     91 H         6.137003   -2.138085   -7.333671 H        1 UNL1     0.0233
     92 H         5.01031   -1.834842   -8.680557 H        1 UNL1     0.0233
     93 H         6.71708   -1.491406   -8.863829 H        1 UNL1     0.0233
     94 H         3.504797   -0.415886   -7.608568 H        1 UNL1     0.0233
     95 H         4.255171   -0.387726   -6.005298 H        1 UNL1     0.0233
     96 H         3.958009   1.13581   -6.873932 H        1 UNL1     0.0233
     97 H         2.885293   10.899407   -1.709421 H        1 UNL1     0.0280
     98 H         4.064818   11.133283   -0.447989 H        1 UNL1     0.0280
     99 H         4.442895   11.64046   -2.121178 H        1 UNL1     0.0280
     100 H         7.227846   10.2443   -3.191281 H        1 UNL1     0.2922
     101 H         4.817911   2.659688   2.658542 H        1 UNL1     0.0236
     102 H         6.421396   1.971526   2.188085 H        1 UNL1     0.0236
     103 H         5.01503   0.964397   2.340804 H        1 UNL1     0.0236
     104 H         3.195221   -0.690953   0.619225 H        1 UNL1     0.2098
     105 H         0.685088   1.219555   -1.026707 H        1 UNL1     0.0234
     106 H         1.361992   -0.429032   -0.903998 H        1 UNL1     0.0234
     107 H         0.0   -0.0   0.0 H        1 UNL1     0.0234
     108 H         2.019606   2.876622   2.105027 H        1 UNL1     0.2098
     109 H         -0.223082   3.808805   -2.222008 H        1 UNL1     0.0234
     110 H         0.837766   2.943654   -1.064892 H        1 UNL1     0.0234
     111 H         -0.287681   2.067972   -2.042335 H        1 UNL1     0.0234
     112 H         -2.72899   -2.141262   1.259309 H        1 UNL1     0.0342
     113 H         -2.862293   -0.488831   1.959267 H        1 UNL1     0.0342
     114 H         -3.988838   -1.022701   0.708727 H        1 UNL1     0.0342
     115 H         -1.897816   1.622426   3.945015 H        1 UNL1     0.0234
     116 H         -1.552719   3.229403   3.297467 H        1 UNL1     0.0234
     117 H         -2.986172   2.294324   2.823666 H        1 UNL1     0.0234
     118 H         0.181629   7.131765   -1.308597 H        1 UNL1     0.0309
     119 H         1.314182   8.073128   -2.32802 H        1 UNL1     0.0309
     120 H         1.27978   6.323979   -2.366121 H        1 UNL1     0.0309
     121 H         -2.339959   5.250275   3.358189 H        1 UNL1     0.0524
     122 H         -2.816415   5.86377   1.769645 H        1 UNL1     0.0524
     123 H         -3.311932   4.22637   2.266761 H        1 UNL1     0.0524
@<TRIPOS>BOND
     1     1     2    1
     2     1    42    1
     3     2     3    2
     4     3     4    1
     5     4     5    2
     6     5     7    1
     7     6    75    1
     8     6    76    1
     9     6    77    1
    10     7     9   am
    11     9    10    1
    12    10    11    2
    13    10    43    1
    14    11    14    1
    15    11    15    1
    16    12    13   ar
    17    12    27   ar
    18    12    43    1
    19    13    14    1
    20    13    30   ar
    21    14    17    2
    22    15    16    1
    23    16    17    1
    24    16    18    1
    25    16    22    1
    26    18    19    1
    27    19    20    1
    28    20    21    1
    29    21    22    1
    30    23    24    1
    31    23    88    1
    32    23    89    1
    33    24    25    1
    34    24    26    1
    35    24    90    1
    36    25    91    1
    37    25    92    1
    38    25    93    1
    39    26    94    1
    40    26    95    1
    41    26    96    1
    42    27    28   ar
    43    28    29   ar
    44    29    30   ar
    45    29    31    1
    46    30    33    1
    47    31    32    1
    48    32    33    1
    49    32    35    1
    50    34    97    1
    51    34    98    1
    52    34    99    1
    53    35    61    1
    54    36    37    1
    55    36    60    1
    56    37    38    1
    57    38    39    1
    58    39    40    1
    59    40    41    1
    60    41    42    1
    61    45   100    1
    62    47   101    1
    63    47   102    1
    64    47   103    1
    65    48   104    1
    66    49   105    1
    67    49   106    1
    68    49   107    1
    69    50   108    1
    70    51    59    1
    71    52   109    1
    72    52   110    1
    73    52   111    1
    74    53    54    1
    75    54    55    2
    76    54    56    1
    77    56   112    1
    78    56   113    1
    79    56   114    1
    80    57   115    1
    81    57   116    1
    82    57   117    1
    83    58   118    1
    84    58   119    1
    85    58   120    1
    86    59   121    1
    87    59   122    1
    88    59   123    1
    89    60    61    2
    90     1    47    1
    91     1    62    1
    92     2    63    1
    93     3    64    1
    94     4    65    1
    95     5     6    1
    96     7     8    2
    97     9    78    1
    98    15    79    1
    99    18    80    1
   100    18    81    1
   101    19    82    1
   102    19    83    1
   103    20    23    1
   104    21    84    1
   105    21    85    1
   106    22    86    1
   107    22    87    1
   108    27    45    1
   109    28    34    1
   110    32    58    1
   111    33    46    2
   112    36    51    1
   113    36    66    1
   114    37    52    1
   115    37    67    1
   116    38    53    1
   117    38    68    1
   118    42    48    1
   119    42    72    1
   120    43    44    2
   121    60    73    1
   122    61    74    1
   123    39    69    1
   124    39    57    1
   125    40    70    1
   126    40    50    1
   127    41    71    1
   128    41    49    1
