@<TRIPOS>MOLECULE
*****
 123 128 0 0 0
SMALL
GASTEIGER

@<TRIPOS>ATOM
     1 C         4.902117   2.269165   0.912084 C.3        1 UNL1     0.0009
     2 C         6.276593   3.289684   0.200471 C.2        1 UNL1     -0.0787
     3 C         7.597045   3.384385   -0.385604 C.2        1 UNL1     -0.0649
     4 C         8.359731   4.75827   -1.01577 C.2        1 UNL1     -0.0542
     5 C         9.388865   5.226043   -1.869673 C.2        1 UNL1     0.0115
     6 C         10.632666   4.792202   -2.69312 C.3        1 UNL1     -0.0348
     7 C         9.337797   6.744379   -2.388358 C.2        1 UNL1     0.2441
     8 O         10.032525   7.633027   -1.914877 O.2        1 UNL1     -0.2702
     9 N         8.636549   6.932273   -3.592143 N.am        1 UNL1     -0.2772
     10 C         7.300418   7.144868   -3.341384 C.2        1 UNL1     0.1049
     11 C         6.563695   6.064366   -3.157056 C.2        1 UNL1     0.0801
     12 C         5.737269   8.497865   -1.933088 C.ar        1 UNL1     0.0753
     13 C         5.096576   7.263009   -1.596558 C.ar        1 UNL1     0.0305
     14 C         5.408383   6.022063   -2.302163 C.2        1 UNL1     0.0924
     15 N         6.856003   4.771369   -3.378957 N.pl3        1 UNL1     -0.3170
     16 C         5.652504   4.008356   -3.17982 C.3        1 UNL1     0.1275
     17 N         4.849342   4.820186   -2.193115 N.2        1 UNL1     -0.2557
     18 C         4.8729   4.043213   -4.490814 C.3        1 UNL1     0.0016
     19 C         5.769036   3.523181   -5.603512 C.3        1 UNL1     0.0026
     20 N         6.18216   2.165693   -5.275514 N.3        1 UNL1     -0.3018
     21 C         6.886811   2.021325   -3.999977 C.3        1 UNL1     0.0026
     22 C         5.966684   2.545373   -2.89606 C.3        1 UNL1     0.0016
     23 C         6.786131   1.4736   -6.396616 C.3        1 UNL1     0.0012
     24 C         5.728018   1.149733   -7.463042 C.3        1 UNL1     -0.0339
     25 C         5.78058   2.150156   -8.629424 C.3        1 UNL1     -0.0615
     26 C         5.895648   -0.280637   -7.945453 C.3        1 UNL1     -0.0615
     27 C         5.349237   9.697229   -1.340572 C.ar        1 UNL1     0.1347
     28 C         4.310902   9.79256   -0.431274 C.ar        1 UNL1     0.0342
     29 C         3.727232   8.557231   -0.07849 C.ar        1 UNL1     0.1435
     30 C         4.129691   7.343323   -0.636767 C.ar        1 UNL1     0.0774
     31 O         2.632809   8.494782   0.711031 O.3        1 UNL1     -0.4436
     32 C         2.075826   7.196323   0.456775 C.3        1 UNL1     0.3143
     33 C         3.231311   6.364174   -0.061486 C.2        1 UNL1     0.2504
     34 C         3.676615   11.066888   0.052325 C.3        1 UNL1     -0.0327
     35 O         1.695894   6.640645   1.721736 O.2        1 UNL1     -0.4528
     36 C         -1.259823   4.366709   1.013898 C.3        1 UNL1     0.0854
     37 C         -1.357416   3.135958   0.032444 C.3        1 UNL1     0.0236
     38 C         -1.844431   1.767125   0.711308 C.3        1 UNL1     0.1131
     39 C         -1.135528   1.24729   2.026411 C.3        1 UNL1     0.0200
     40 C         0.525896   1.296756   2.166628 C.3        1 UNL1     0.0661
     41 C         1.637272   0.719334   1.022496 C.3        1 UNL1     0.0091
     42 C         3.317665   1.314769   0.5899 C.3        1 UNL1     0.0661
     43 C         6.768397   8.472571   -3.000044 C.2        1 UNL1     0.2131
     44 O         7.096723   9.453721   -3.642138 O.2        1 UNL1     -0.2851
     45 O         6.054576   10.847052   -1.689631 O.3        1 UNL1     -0.5056
     46 O         3.386028   5.165236   0.00533 O.2        1 UNL1     -0.2836
     47 C         5.264414   1.802642   2.347729 C.3        1 UNL1     -0.0566
     48 O         3.929089   -0.035813   0.624631 O.3        1 UNL1     -0.3909
     49 C         0.910262   0.465861   -0.279312 C.3        1 UNL1     -0.0577
     50 O         0.949915   2.550763   2.662005 O.3        1 UNL1     -0.3910
     51 O         -1.439722   4.079236   2.382265 O.3        1 UNL1     -0.3753
     52 C         -0.236666   3.170546   -1.05736 C.3        1 UNL1     -0.0564
     53 O         -2.263436   0.721034   -0.279881 O.3        1 UNL1     -0.4608
     54 C         -2.323726   -0.626197   -0.036441 C.2        1 UNL1     0.3042
     55 O         -1.517771   -1.485896   -0.390265 O.2        1 UNL1     -0.2512
     56 C         -3.497611   -1.032767   0.808194 C.3        1 UNL1     0.0332
     57 C         -2.003896   1.748291   3.272649 C.3        1 UNL1     -0.0567
     58 C         1.042936   7.378322   -0.679686 C.3        1 UNL1     0.0210
     59 C         -1.936034   5.165668   3.16278 C.3        1 UNL1     0.0372
     60 C         -0.006168   5.161254   0.903413 C.2        1 UNL1     -0.0208
     61 C         0.795537   5.647467   1.851892 C.2        1 UNL1     0.0882
     62 H         4.305797   3.183068   1.021156 H        1 UNL1     0.0365
     63 H         5.878534   4.296263   0.344752 H        1 UNL1     0.0576
     64 H         8.18085   2.493649   -0.628233 H        1 UNL1     0.0615
     65 H         7.745792   5.586867   -0.652467 H        1 UNL1     0.0622
     66 H         -2.070668   5.037562   0.69683 H        1 UNL1     0.0645
     67 H         -2.217576   3.377599   -0.615858 H        1 UNL1     0.0362
     68 H         -2.856254   2.066814   1.024236 H        1 UNL1     0.0741
     69 H         -1.352289   0.194093   2.145571 H        1 UNL1     0.0359
     70 H         0.666306   0.601774   3.016537 H        1 UNL1     0.0600
     71 H         1.780118   -0.313646   1.396 H        1 UNL1     0.0348
     72 H         3.097036   1.72642   1.585481 H        1 UNL1     0.0602
     73 H         0.146262   5.433861   -0.111328 H        1 UNL1     0.0628
     74 H         0.742262   5.37139   2.905543 H        1 UNL1     0.1022
     75 H         10.756093   3.682781   -2.661741 H        1 UNL1     0.0279
     76 H         10.601847   4.994355   -3.761415 H        1 UNL1     0.0279
     77 H         11.578579   5.128369   -2.243741 H        1 UNL1     0.0279
     78 H         8.7111   6.094707   -4.165732 H        1 UNL1     0.1553
     79 H         7.60278   4.46339   -3.974277 H        1 UNL1     0.1484
     80 H         3.96891   3.431254   -4.385584 H        1 UNL1     0.0317
     81 H         4.537832   5.060517   -4.719882 H        1 UNL1     0.0317
     82 H         6.640873   4.174815   -5.762212 H        1 UNL1     0.0428
     83 H         5.194131   3.558342   -6.529416 H        1 UNL1     0.0428
     84 H         7.115118   0.982996   -3.740054 H        1 UNL1     0.0428
     85 H         7.868744   2.514097   -4.017366 H        1 UNL1     0.0428
     86 H         6.456654   2.302885   -1.971334 H        1 UNL1     0.0317
     87 H         5.047047   1.948657   -2.860088 H        1 UNL1     0.0317
     88 H         7.539374   2.13676   -6.841744 H        1 UNL1     0.0429
     89 H         7.309653   0.56593   -6.069762 H        1 UNL1     0.0429
     90 H         4.73208   1.197215   -7.006899 H        1 UNL1     0.0308
     91 H         6.808998   2.319096   -8.96247 H        1 UNL1     0.0233
     92 H         5.184817   1.79232   -9.472412 H        1 UNL1     0.0233
     93 H         5.36904   3.129893   -8.358157 H        1 UNL1     0.0233
     94 H         5.438807   -0.401966   -8.933589 H        1 UNL1     0.0233
     95 H         6.958384   -0.5232   -8.033302 H        1 UNL1     0.0233
     96 H         5.427067   -0.990944   -7.25853 H        1 UNL1     0.0233
     97 H         2.803296   10.878612   0.669655 H        1 UNL1     0.0280
     98 H         4.360918   11.660271   0.672713 H        1 UNL1     0.0280
     99 H         3.363971   11.674809   -0.812418 H        1 UNL1     0.0280
     100 H         5.514908   11.579503   -1.930246 H        1 UNL1     0.2922
     101 H         4.395463   1.338549   2.813774 H        1 UNL1     0.0236
     102 H         5.683229   2.597592   2.963872 H        1 UNL1     0.0236
     103 H         6.035087   1.013815   2.344724 H        1 UNL1     0.0236
     104 H         4.223872   -0.202649   1.541277 H        1 UNL1     0.2098
     105 H         0.665721   1.364827   -0.839555 H        1 UNL1     0.0234
     106 H         1.385076   -0.267754   -0.930685 H        1 UNL1     0.0234
     107 H         0.0   -0.0   0.0 H        1 UNL1     0.0234
     108 H         0.770244   3.213008   1.967082 H        1 UNL1     0.2098
     109 H         0.770748   3.168443   -0.61824 H        1 UNL1     0.0234
     110 H         -0.320207   2.357544   -1.7866 H        1 UNL1     0.0234
     111 H         -0.293171   4.082034   -1.667232 H        1 UNL1     0.0234
     112 H         -3.474902   -2.112914   0.981724 H        1 UNL1     0.0342
     113 H         -3.533588   -0.486491   1.749539 H        1 UNL1     0.0342
     114 H         -4.416734   -0.800119   0.252989 H        1 UNL1     0.0342
     115 H         -3.06264   1.473268   3.169633 H        1 UNL1     0.0234
     116 H         -1.658177   1.368318   4.236054 H        1 UNL1     0.0234
     117 H         -2.07531   2.847155   3.345722 H        1 UNL1     0.0234
     118 H         0.004496   7.330421   -0.307725 H        1 UNL1     0.0309
     119 H         1.180112   8.308607   -1.240002 H        1 UNL1     0.0309
     120 H         1.084099   6.57048   -1.418471 H        1 UNL1     0.0309
     121 H         -1.608359   5.010158   4.190302 H        1 UNL1     0.0524
     122 H         -1.534979   6.137468   2.829919 H        1 UNL1     0.0524
     123 H         -3.020889   5.197277   3.116024 H        1 UNL1     0.0524
@<TRIPOS>BOND
     1     1     2    1
     2     1    42    1
     3     2     3    2
     4     3     4    1
     5     4     5    2
     6     5     7    1
     7     6    75    1
     8     6    76    1
     9     6    77    1
    10     7     9   am
    11     9    10    1
    12    10    11    2
    13    10    43    1
    14    11    14    1
    15    11    15    1
    16    12    13   ar
    17    12    27   ar
    18    12    43    1
    19    13    14    1
    20    13    30   ar
    21    14    17    2
    22    15    16    1
    23    16    17    1
    24    16    18    1
    25    16    22    1
    26    18    19    1
    27    19    20    1
    28    20    21    1
    29    21    22    1
    30    23    24    1
    31    23    88    1
    32    23    89    1
    33    24    25    1
    34    24    26    1
    35    24    90    1
    36    25    91    1
    37    25    92    1
    38    25    93    1
    39    26    94    1
    40    26    95    1
    41    26    96    1
    42    27    28   ar
    43    28    29   ar
    44    29    30   ar
    45    29    31    1
    46    30    33    1
    47    31    32    1
    48    32    33    1
    49    32    35    1
    50    34    97    1
    51    34    98    1
    52    34    99    1
    53    35    61    1
    54    36    37    1
    55    36    60    1
    56    37    38    1
    57    38    39    1
    58    39    40    1
    59    40    41    1
    60    41    42    1
    61    45   100    1
    62    47   101    1
    63    47   102    1
    64    47   103    1
    65    48   104    1
    66    49   105    1
    67    49   106    1
    68    49   107    1
    69    50   108    1
    70    51    59    1
    71    52   109    1
    72    52   110    1
    73    52   111    1
    74    53    54    1
    75    54    55    2
    76    54    56    1
    77    56   112    1
    78    56   113    1
    79    56   114    1
    80    57   115    1
    81    57   116    1
    82    57   117    1
    83    58   118    1
    84    58   119    1
    85    58   120    1
    86    59   121    1
    87    59   122    1
    88    59   123    1
    89    60    61    2
    90     1    47    1
    91     1    62    1
    92     2    63    1
    93     3    64    1
    94     4    65    1
    95     5     6    1
    96     7     8    2
    97     9    78    1
    98    15    79    1
    99    18    80    1
   100    18    81    1
   101    19    82    1
   102    19    83    1
   103    20    23    1
   104    21    84    1
   105    21    85    1
   106    22    86    1
   107    22    87    1
   108    27    45    1
   109    28    34    1
   110    32    58    1
   111    33    46    2
   112    36    51    1
   113    36    66    1
   114    37    52    1
   115    37    67    1
   116    38    53    1
   117    38    68    1
   118    42    48    1
   119    42    72    1
   120    43    44    2
   121    60    73    1
   122    61    74    1
   123    39    69    1
   124    39    57    1
   125    40    70    1
   126    40    50    1
   127    41    71    1
   128    41    49    1
