@<TRIPOS>MOLECULE
*****
 123 128 0 0 0
SMALL
GASTEIGER

@<TRIPOS>ATOM
     1 C         4.196799   2.851584   2.062673 C.3        1 UNL1     0.0009
     2 C         5.502324   4.124312   1.726807 C.2        1 UNL1     -0.0787
     3 C         6.877462   4.464518   1.427974 C.2        1 UNL1     -0.0649
     4 C         7.518969   5.991495   1.077021 C.2        1 UNL1     -0.0542
     5 C         8.603041   6.688023   0.488197 C.2        1 UNL1     0.0115
     6 C         10.031252   6.523456   -0.100407 C.3        1 UNL1     -0.0348
     7 C         8.411892   8.232386   0.093998 C.2        1 UNL1     0.2441
     8 O         8.857486   9.151166   0.767655 O.2        1 UNL1     -0.2702
     9 N         7.92731   8.452516   -1.207107 N.am        1 UNL1     -0.2772
     10 C         6.551351   8.449429   -1.213994 C.2        1 UNL1     0.1049
     11 C         5.972243   7.26377   -1.2694 C.2        1 UNL1     0.0801
     12 C         4.559741   9.410314   -0.044581 C.ar        1 UNL1     0.0753
     13 C         4.069565   8.069297   0.05547 C.ar        1 UNL1     0.0305
     14 C         4.698778   6.968463   -0.670688 C.2        1 UNL1     0.0924
     15 N         6.500329   6.055892   -1.531474 N.pl3        1 UNL1     -0.3170
     16 C         5.415921   5.116544   -1.640737 C.3        1 UNL1     0.1275
     17 N         4.325114   5.696179   -0.773623 N.2        1 UNL1     -0.2557
     18 C         4.899435   5.186977   -3.074607 C.3        1 UNL1     0.0016
     19 C         6.058101   4.921248   -4.022485 C.3        1 UNL1     0.0026
     20 N         6.610713   3.606222   -3.728625 N.3        1 UNL1     -0.3018
     21 C         7.078346   3.421526   -2.353279 C.3        1 UNL1     0.0026
     22 C         5.897425   3.688853   -1.418477 C.3        1 UNL1     0.0016
     23 C         7.51466   3.131649   -4.757363 C.3        1 UNL1     0.0012
     24 C         6.738751   2.78362   -6.03744 C.3        1 UNL1     -0.0339
     25 C         6.748664   3.952421   -7.036371 C.3        1 UNL1     -0.0615
     26 C         7.297903   1.514418   -6.656517 C.3        1 UNL1     -0.0615
     27 C         3.884279   10.472095   0.552487 C.ar        1 UNL1     0.1347
     28 C         2.692458   10.322464   1.238944 C.ar        1 UNL1     0.0342
     29 C         2.254616   8.987084   1.366298 C.ar        1 UNL1     0.1435
     30 C         2.939955   7.909223   0.804384 C.ar        1 UNL1     0.0774
     31 O         1.055579   8.687547   1.911819 O.3        1 UNL1     -0.4436
     32 C         0.766981   7.360377   1.446843 C.3        1 UNL1     0.3143
     33 C         2.115097   6.758036   1.106284 C.2        1 UNL1     0.2504
     34 C         1.786769   11.435929   1.686184 C.3        1 UNL1     -0.0327
     35 O         0.249456   6.621983   2.560484 O.2        1 UNL1     -0.4528
     36 C         -2.12725   4.052693   1.091434 C.3        1 UNL1     0.0854
     37 C         -1.845099   2.935558   0.014437 C.3        1 UNL1     0.0236
     38 C         -2.229173   1.446336   0.468801 C.3        1 UNL1     0.1131
     39 C         -1.705817   0.888316   1.853352 C.3        1 UNL1     0.0200
     40 C         -0.128649   1.151408   2.328498 C.3        1 UNL1     0.0661
     41 C         1.253634   0.862413   1.388612 C.3        1 UNL1     0.0091
     42 C         2.870463   1.728414   1.352404 C.3        1 UNL1     0.0661
     43 C         5.763033   9.645195   -0.880752 C.2        1 UNL1     0.2131
     44 O         6.047261   10.726842   -1.362408 O.2        1 UNL1     -0.2851
     45 O         4.452846   11.739732   0.446354 O.3        1 UNL1     -0.5056
     46 O         2.441021   5.592006   1.105966 O.2        1 UNL1     -0.2836
     47 C         4.353135   2.284863   3.499463 C.3        1 UNL1     -0.0566
     48 O         3.669094   0.479815   1.400423 O.3        1 UNL1     -0.3909
     49 C         0.831736   0.655315   -0.048958 C.3        1 UNL1     -0.0577
     50 O         -0.007069   2.389957   2.998525 O.3        1 UNL1     -0.3910
     51 O         -2.51226   3.594602   2.367894 O.3        1 UNL1     -0.3753
     52 C         -0.560036   3.244286   -0.821177 C.3        1 UNL1     -0.0564
     53 O         -2.285901   0.467571   -0.667477 O.3        1 UNL1     -0.4608
     54 C         -2.199005   -0.894856   -0.548429 C.2        1 UNL1     0.3042
     55 O         -1.280945   -1.620702   -0.9281 O.2        1 UNL1     -0.2512
     56 C         -3.35702   -1.509532   0.184981 C.3        1 UNL1     0.0332
     57 C         -2.859522   1.12449   2.935647 C.3        1 UNL1     -0.0567
     58 C         -0.050862   7.521442   0.144261 C.3        1 UNL1     0.0210
     59 C         -3.336234   4.496567   3.105044 C.3        1 UNL1     0.0372
     60 C         -1.015725   5.020281   1.299876 C.2        1 UNL1     -0.0208
     61 C         -0.49193   5.505591   2.426311 C.2        1 UNL1     0.0882
     62 H         3.45455   3.656666   2.122866 H        1 UNL1     0.0365
     63 H         4.931195   5.04417   1.868735 H        1 UNL1     0.0576
     64 H         7.628893   3.695173   1.236749 H        1 UNL1     0.0615
     65 H         6.725527   6.682258   1.374978 H        1 UNL1     0.0622
     66 H         -2.959705   4.635666   0.672858 H        1 UNL1     0.0645
     67 H         -2.596037   3.125616   -0.77203 H        1 UNL1     0.0362
     68 H         -3.315942   1.567003   0.594878 H        1 UNL1     0.0741
     69 H         -1.77281   -0.191393   1.841144 H        1 UNL1     0.0359
     70 H         -0.042127   0.393445   3.130413 H        1 UNL1     0.0600
     71 H         1.484656   -0.175586   1.698683 H        1 UNL1     0.0348
     72 H         2.405776   1.993758   2.31312 H        1 UNL1     0.0602
     73 H         -0.721103   5.421111   0.361909 H        1 UNL1     0.0628
     74 H         -0.697124   5.110787   3.421933 H        1 UNL1     0.1022
     75 H         10.350633   5.454117   -0.061113 H        1 UNL1     0.0279
     76 H         10.152713   6.76566   -1.153808 H        1 UNL1     0.0279
     77 H         10.803948   7.00336   0.517925 H        1 UNL1     0.0279
     78 H         8.238396   7.70141   -1.819597 H        1 UNL1     0.1553
     79 H         7.38415   5.921413   -1.987225 H        1 UNL1     0.1484
     80 H         4.099287   4.448047   -3.203105 H        1 UNL1     0.0317
     81 H         4.457478   6.1671   -3.283615 H        1 UNL1     0.0317
     82 H         6.830827   5.700654   -3.949456 H        1 UNL1     0.0428
     83 H         5.668105   4.978009   -5.03921 H        1 UNL1     0.0428
     84 H         7.414309   2.402554   -2.137325 H        1 UNL1     0.0428
     85 H         7.956388   4.044277   -2.132958 H        1 UNL1     0.0428
     86 H         6.237852   3.416406   -0.436708 H        1 UNL1     0.0317
     87 H         5.092653   2.970367   -1.616504 H        1 UNL1     0.0317
     88 H         8.224099   3.937448   -4.986885 H        1 UNL1     0.0429
     89 H         8.103867   2.274765   -4.406138 H        1 UNL1     0.0429
     90 H         5.698399   2.556319   -5.77626 H        1 UNL1     0.0308
     91 H         7.770358   4.239578   -7.302423 H        1 UNL1     0.0233
     92 H         6.202131   3.688753   -7.94488 H        1 UNL1     0.0233
     93 H         6.26052   4.848846   -6.635156 H        1 UNL1     0.0233
     94 H         6.881095   1.367696   -7.658804 H        1 UNL1     0.0233
     95 H         8.384589   1.592329   -6.751405 H        1 UNL1     0.0233
     96 H         7.058546   0.635959   -6.050723 H        1 UNL1     0.0233
     97 H         0.890885   11.061917   2.17274 H        1 UNL1     0.0280
     98 H         2.272232   12.09609   2.416779 H        1 UNL1     0.0280
     99 H         1.481145   12.036109   0.813559 H        1 UNL1     0.0280
     100 H         3.880601   12.397014   0.091191 H        1 UNL1     0.2922
     101 H         3.556061   1.569612   3.701323 H        1 UNL1     0.0236
     102 H         4.409483   3.060548   4.262431 H        1 UNL1     0.0236
     103 H         5.284661   1.706471   3.617424 H        1 UNL1     0.0236
     104 H         3.892123   0.308148   2.336243 H        1 UNL1     0.2098
     105 H         0.512154   1.561075   -0.55815 H        1 UNL1     0.0234
     106 H         1.551431   0.111789   -0.660959 H        1 UNL1     0.0234
     107 H         0.0   0.0   0.0 H        1 UNL1     0.0234
     108 H         -0.220092   3.091146   2.352984 H        1 UNL1     0.2098
     109 H         0.337228   3.321101   -0.191313 H        1 UNL1     0.0234
     110 H         -0.383738   2.519453   -1.623225 H        1 UNL1     0.0234
     111 H         -0.639059   4.206461   -1.344551 H        1 UNL1     0.0234
     112 H         -3.223579   -2.59369   0.249321 H        1 UNL1     0.0342
     113 H         -3.493833   -1.073378   1.173361 H        1 UNL1     0.0342
     114 H         -4.27095   -1.316443   -0.393476 H        1 UNL1     0.0342
     115 H         -3.785453   0.59746   2.667171 H        1 UNL1     0.0234
     116 H         -2.588473   0.817289   3.947678 H        1 UNL1     0.0234
     117 H         -3.21391   2.168699   2.980123 H        1 UNL1     0.0234
     118 H         -1.123108   7.690366   0.346152 H        1 UNL1     0.0309
     119 H         0.322622   8.322732   -0.50122 H        1 UNL1     0.0309
     120 H         -0.04921   6.613111   -0.468144 H        1 UNL1     0.0309
     121 H         -2.762554   5.408407   3.268737 H        1 UNL1     0.0524
     122 H         -4.250239   4.773845   2.553909 H        1 UNL1     0.0524
     123 H         -3.618556   4.055409   4.056762 H        1 UNL1     0.0524
@<TRIPOS>BOND
     1     1     2    1
     2     1    42    1
     3     2     3    2
     4     3     4    1
     5     4     5    2
     6     5     7    1
     7     6    75    1
     8     6    76    1
     9     6    77    1
    10     7     9   am
    11     9    10    1
    12    10    11    2
    13    10    43    1
    14    11    14    1
    15    11    15    1
    16    12    13   ar
    17    12    27   ar
    18    12    43    1
    19    13    14    1
    20    13    30   ar
    21    14    17    2
    22    15    16    1
    23    16    17    1
    24    16    18    1
    25    16    22    1
    26    18    19    1
    27    19    20    1
    28    20    21    1
    29    21    22    1
    30    23    24    1
    31    23    88    1
    32    23    89    1
    33    24    25    1
    34    24    26    1
    35    24    90    1
    36    25    91    1
    37    25    92    1
    38    25    93    1
    39    26    94    1
    40    26    95    1
    41    26    96    1
    42    27    28   ar
    43    28    29   ar
    44    29    30   ar
    45    29    31    1
    46    30    33    1
    47    31    32    1
    48    32    33    1
    49    32    35    1
    50    34    97    1
    51    34    98    1
    52    34    99    1
    53    35    61    1
    54    36    37    1
    55    36    60    1
    56    37    38    1
    57    38    39    1
    58    39    40    1
    59    40    41    1
    60    41    42    1
    61    45   100    1
    62    47   101    1
    63    47   102    1
    64    47   103    1
    65    48   104    1
    66    49   105    1
    67    49   106    1
    68    49   107    1
    69    50   108    1
    70    51    59    1
    71    52   109    1
    72    52   110    1
    73    52   111    1
    74    53    54    1
    75    54    55    2
    76    54    56    1
    77    56   112    1
    78    56   113    1
    79    56   114    1
    80    57   115    1
    81    57   116    1
    82    57   117    1
    83    58   118    1
    84    58   119    1
    85    58   120    1
    86    59   121    1
    87    59   122    1
    88    59   123    1
    89    60    61    2
    90     1    47    1
    91     1    62    1
    92     2    63    1
    93     3    64    1
    94     4    65    1
    95     5     6    1
    96     7     8    2
    97     9    78    1
    98    15    79    1
    99    18    80    1
   100    18    81    1
   101    19    82    1
   102    19    83    1
   103    20    23    1
   104    21    84    1
   105    21    85    1
   106    22    86    1
   107    22    87    1
   108    27    45    1
   109    28    34    1
   110    32    58    1
   111    33    46    2
   112    36    51    1
   113    36    66    1
   114    37    52    1
   115    37    67    1
   116    38    53    1
   117    38    68    1
   118    42    48    1
   119    42    72    1
   120    43    44    2
   121    60    73    1
   122    61    74    1
   123    39    69    1
   124    39    57    1
   125    40    70    1
   126    40    50    1
   127    41    71    1
   128    41    49    1
