@<TRIPOS>MOLECULE
*****
 123 128 0 0 0
SMALL
GASTEIGER

@<TRIPOS>ATOM
     1 C         0.103066   0.312484   4.112614 C.3        1 UNL1     0.0009
     2 C         -1.065325   -0.445739   5.336132 C.2        1 UNL1     -0.0787
     3 C         -2.231673   -0.345108   6.187925 C.2        1 UNL1     -0.0649
     4 C         -2.963274   -1.569911   7.099503 C.2        1 UNL1     -0.0542
     5 C         -4.150795   -1.976571   7.756389 C.2        1 UNL1     0.0115
     6 C         -5.55254   -1.500388   8.227224 C.3        1 UNL1     -0.0348
     7 C         -4.345107   -3.527998   8.120128 C.2        1 UNL1     0.2441
     8 O         -4.180668   -3.972727   9.247825 O.2        1 UNL1     -0.2702
     9 N         -4.968181   -4.293981   7.119529 N.am        1 UNL1     -0.2772
     10 C         -4.032441   -4.785886   6.238767 C.2        1 UNL1     0.1049
     11 C         -3.648177   -3.964243   5.278837 C.2        1 UNL1     0.0801
     12 C         -1.841201   -5.988364   6.139513 C.ar        1 UNL1     0.0753
     13 C         -1.400577   -4.950248   5.258165 C.ar        1 UNL1     0.0305
     14 C         -2.333697   -3.976274   4.69628 C.2        1 UNL1     0.0924
     15 N         -4.171062   -2.789957   4.886189 N.pl3        1 UNL1     -0.3170
     16 C         -3.486603   -2.38295   3.687809 C.3        1 UNL1     0.1275
     17 N         -2.122453   -3.019231   3.797186 N.2        1 UNL1     -0.2557
     18 C         -4.181073   -3.06895   2.515283 C.3        1 UNL1     0.0016
     19 C         -5.658139   -2.710008   2.547316 C.3        1 UNL1     0.0026
     20 N         -5.789694   -1.26222   2.45996 N.3        1 UNL1     -0.3018
     21 C         -5.101743   -0.51083   3.511865 C.3        1 UNL1     0.0026
     22 C         -3.619037   -0.883151   3.458431 C.3        1 UNL1     0.0016
     23 C         -7.146534   -0.834985   2.182288 C.3        1 UNL1     0.0012
     24 C         -7.958986   -0.742333   3.483477 C.3        1 UNL1     -0.0339
     25 C         -7.113121   -0.175284   4.635443 C.3        1 UNL1     -0.0615
     26 C         -9.215577   0.079706   3.255417 C.3        1 UNL1     -0.0615
     27 C         -0.969673   -6.983964   6.574642 C.ar        1 UNL1     0.1347
     28 C         0.349458   -7.068412   6.166214 C.ar        1 UNL1     0.0342
     29 C         0.77408   -6.008176   5.337504 C.ar        1 UNL1     0.1435
     30 C         -0.078169   -4.984094   4.922598 C.ar        1 UNL1     0.0774
     31 O         1.998982   -6.006121   4.767753 O.3        1 UNL1     -0.4436
     32 C         1.88933   -5.081055   3.675461 C.3        1 UNL1     0.3143
     33 C         0.733886   -4.17143   4.041173 C.2        1 UNL1     0.2504
     34 C         1.267844   -8.237884   6.387575 C.3        1 UNL1     -0.0327
     35 O         3.07334   -4.273993   3.680259 O.2        1 UNL1     -0.4528
     36 C         3.689008   -3.308065   0.061416 C.3        1 UNL1     0.0854
     37 C         2.737655   -2.551356   -0.943492 C.3        1 UNL1     0.0236
     38 C         3.367771   -1.236048   -1.610324 C.3        1 UNL1     0.1131
     39 C         4.033399   -0.132577   -0.692957 C.3        1 UNL1     0.0200
     40 C         3.29534   0.345356   0.724536 C.3        1 UNL1     0.0661
     41 C         1.671788   0.807311   0.892733 C.3        1 UNL1     0.0091
     42 C         0.519009   0.611044   2.306232 C.3        1 UNL1     0.0661
     43 C         -3.279442   -6.020848   6.50375 C.2        1 UNL1     0.2131
     44 O         -3.851316   -7.020718   6.898663 O.2        1 UNL1     -0.2851
     45 O         -1.466545   -7.931153   7.467609 O.3        1 UNL1     -0.5056
     46 O         0.53912   -3.026283   3.699767 O.2        1 UNL1     -0.2836
     47 C         1.057925   1.308252   4.824423 C.3        1 UNL1     -0.0566
     48 O         0.038332   2.01303   2.256195 O.3        1 UNL1     -0.3909
     49 C         0.916688   0.398851   -0.352449 C.3        1 UNL1     -0.0577
     50 O         3.670889   -0.49854   1.79436 O.3        1 UNL1     -0.3910
     51 O         4.894384   -2.650982   0.381951 O.3        1 UNL1     -0.3753
     52 C         1.242125   -2.619541   -0.492172 C.3        1 UNL1     -0.0564
     53 O         2.6015   -0.740848   -2.801933 O.3        1 UNL1     -0.4608
     54 C         2.395481   0.575118   -3.123985 C.2        1 UNL1     0.3042
     55 O         1.369531   1.233271   -2.956361 O.2        1 UNL1     -0.2512
     56 C         3.610447   1.252885   -3.690734 C.3        1 UNL1     0.0332
     57 C         5.605834   -0.422519   -0.653508 C.3        1 UNL1     -0.0567
     58 C         1.494448   -5.914678   2.434223 C.3        1 UNL1     0.0210
     59 C         6.064591   -3.231818   -0.191731 C.3        1 UNL1     0.0372
     60 C         3.057666   -3.699913   1.350999 C.2        1 UNL1     -0.0208
     61 C         3.509414   -3.595654   2.601518 C.2        1 UNL1     0.0882
     62 H         0.634885   -0.644952   4.056081 H        1 UNL1     0.0365
     63 H         -0.59366   -1.418146   5.492422 H        1 UNL1     0.0576
     64 H         -2.866212   0.543975   6.186949 H        1 UNL1     0.0615
     65 H         -2.220258   -2.372036   7.10209 H        1 UNL1     0.0622
     66 H         3.938673   -4.248445   -0.449856 H        1 UNL1     0.0645
     67 H         2.672784   -3.228591   -1.812805 H        1 UNL1     0.0362
     68 H         4.199784   -1.692896   -2.167608 H        1 UNL1     0.0741
     69 H         4.096487   0.792141   -1.250923 H        1 UNL1     0.0359
     70 H         3.83949   1.290458   0.913597 H        1 UNL1     0.0600
     71 H         1.765195   1.900578   0.741078 H        1 UNL1     0.0348
     72 H         1.531002   0.50478   2.723236 H        1 UNL1     0.0602
     73 H         2.16237   -4.235204   1.153118 H        1 UNL1     0.0628
     74 H         4.385479   -3.016016   2.89438 H        1 UNL1     0.1022
     75 H         -5.63183   -1.554949   9.339776 H        1 UNL1     0.0279
     76 H         -5.80537   -0.462001   8.024995 H        1 UNL1     0.0279
     77 H         -6.358929   -2.181762   7.918732 H        1 UNL1     0.0279
     78 H         -5.609385   -3.707583   6.589366 H        1 UNL1     0.1553
     79 H         -5.104456   -2.494504   5.106224 H        1 UNL1     0.1484
     80 H         -3.709843   -2.742873   1.580198 H        1 UNL1     0.0317
     81 H         -4.055151   -4.155725   2.567386 H        1 UNL1     0.0317
     82 H         -6.152062   -3.098587   3.450067 H        1 UNL1     0.0428
     83 H         -6.134488   -3.210958   1.703995 H        1 UNL1     0.0428
     84 H         -5.149192   0.574401   3.378325 H        1 UNL1     0.0428
     85 H         -5.556431   -0.678427   4.498013 H        1 UNL1     0.0428
     86 H         -3.129064   -0.220385   4.147383 H        1 UNL1     0.0317
     87 H         -3.195857   -0.598052   2.487486 H        1 UNL1     0.0317
     88 H         -7.103798   0.162275   1.725188 H        1 UNL1     0.0429
     89 H         -7.633692   -1.500238   1.457796 H        1 UNL1     0.0429
     90 H         -8.303611   -1.744736   3.763897 H        1 UNL1     0.0308
     91 H         -7.670322   -0.178552   5.577048 H        1 UNL1     0.0233
     92 H         -6.194157   -0.752754   4.760516 H        1 UNL1     0.0233
     93 H         -6.801164   0.860376   4.453991 H        1 UNL1     0.0233
     94 H         -9.779244   0.17513   4.189767 H        1 UNL1     0.0233
     95 H         -8.948256   1.085277   2.918775 H        1 UNL1     0.0233
     96 H         -9.864315   -0.382565   2.506142 H        1 UNL1     0.0233
     97 H         1.643091   -8.643899   5.452924 H        1 UNL1     0.0280
     98 H         2.154692   -7.962576   6.973204 H        1 UNL1     0.0280
     99 H         0.725854   -9.037373   6.918763 H        1 UNL1     0.0280
     100 H         -0.93871   -8.059516   8.236072 H        1 UNL1     0.2922
     101 H         0.480104   1.98857   5.449681 H        1 UNL1     0.0236
     102 H         1.711993   1.841753   4.135544 H        1 UNL1     0.0236
     103 H         1.741838   0.798434   5.52338 H        1 UNL1     0.0236
     104 H         0.424102   2.428877   1.460442 H        1 UNL1     0.2098
     105 H         0.685092   1.219542   -1.02672 H        1 UNL1     0.0234
     106 H         1.361977   -0.429052   -0.90401 H        1 UNL1     0.0234
     107 H         0.0   -0.0   0.0 H        1 UNL1     0.0234
     108 H         3.051842   -0.327273   2.530034 H        1 UNL1     0.2098
     109 H         0.870708   -3.652403   -0.437794 H        1 UNL1     0.0234
     110 H         1.056681   -2.11281   0.461021 H        1 UNL1     0.0234
     111 H         0.581458   -2.103038   -1.20118 H        1 UNL1     0.0234
     112 H         4.093866   0.598958   -4.422876 H        1 UNL1     0.0342
     113 H         3.372422   2.221062   -4.128708 H        1 UNL1     0.0342
     114 H         4.321544   1.424189   -2.870881 H        1 UNL1     0.0342
     115 H         6.190725   0.505358   -0.589192 H        1 UNL1     0.0234
     116 H         5.918147   -1.065412   0.171839 H        1 UNL1     0.0234
     117 H         5.996792   -0.856384   -1.589913 H        1 UNL1     0.0234
     118 H         2.314555   -5.975328   1.697505 H        1 UNL1     0.0309
     119 H         1.162344   -6.927204   2.684624 H        1 UNL1     0.0309
     120 H         0.676681   -5.459427   1.864917 H        1 UNL1     0.0309
     121 H         6.91337   -2.94363   0.427849 H        1 UNL1     0.0524
     122 H         6.021667   -4.333651   -0.204261 H        1 UNL1     0.0524
     123 H         6.203043   -2.872787   -1.207616 H        1 UNL1     0.0524
@<TRIPOS>BOND
     1     1     2    1
     2     1    42    1
     3     2     3    2
     4     3     4    1
     5     4     5    2
     6     5     7    1
     7     6    75    1
     8     6    76    1
     9     6    77    1
    10     7     9   am
    11     9    10    1
    12    10    11    2
    13    10    43    1
    14    11    14    1
    15    11    15    1
    16    12    13   ar
    17    12    27   ar
    18    12    43    1
    19    13    14    1
    20    13    30   ar
    21    14    17    2
    22    15    16    1
    23    16    17    1
    24    16    18    1
    25    16    22    1
    26    18    19    1
    27    19    20    1
    28    20    21    1
    29    21    22    1
    30    23    24    1
    31    23    88    1
    32    23    89    1
    33    24    25    1
    34    24    26    1
    35    24    90    1
    36    25    91    1
    37    25    92    1
    38    25    93    1
    39    26    94    1
    40    26    95    1
    41    26    96    1
    42    27    28   ar
    43    28    29   ar
    44    29    30   ar
    45    29    31    1
    46    30    33    1
    47    31    32    1
    48    32    33    1
    49    32    35    1
    50    34    97    1
    51    34    98    1
    52    34    99    1
    53    35    61    1
    54    36    37    1
    55    36    60    1
    56    37    38    1
    57    38    39    1
    58    39    40    1
    59    40    41    1
    60    41    42    1
    61    45   100    1
    62    47   101    1
    63    47   102    1
    64    47   103    1
    65    48   104    1
    66    49   105    1
    67    49   106    1
    68    49   107    1
    69    50   108    1
    70    51    59    1
    71    52   109    1
    72    52   110    1
    73    52   111    1
    74    53    54    1
    75    54    55    2
    76    54    56    1
    77    56   112    1
    78    56   113    1
    79    56   114    1
    80    57   115    1
    81    57   116    1
    82    57   117    1
    83    58   118    1
    84    58   119    1
    85    58   120    1
    86    59   121    1
    87    59   122    1
    88    59   123    1
    89    60    61    2
    90     1    47    1
    91     1    62    1
    92     2    63    1
    93     3    64    1
    94     4    65    1
    95     5     6    1
    96     7     8    2
    97     9    78    1
    98    15    79    1
    99    18    80    1
   100    18    81    1
   101    19    82    1
   102    19    83    1
   103    20    23    1
   104    21    84    1
   105    21    85    1
   106    22    86    1
   107    22    87    1
   108    27    45    1
   109    28    34    1
   110    32    58    1
   111    33    46    2
   112    36    51    1
   113    36    66    1
   114    37    52    1
   115    37    67    1
   116    38    53    1
   117    38    68    1
   118    42    48    1
   119    42    72    1
   120    43    44    2
   121    60    73    1
   122    61    74    1
   123    39    69    1
   124    39    57    1
   125    40    70    1
   126    40    50    1
   127    41    71    1
   128    41    49    1
