@<TRIPOS>MOLECULE
*****
 123 128 0 0 0
SMALL
GASTEIGER

@<TRIPOS>ATOM
     1 C         5.036833   2.055436   0.645946 C.3        1 UNL1     0.0009
     2 C         6.423107   2.996629   -0.147424 C.2        1 UNL1     -0.0787
     3 C         7.718786   3.018164   -0.793025 C.2        1 UNL1     -0.0649
     4 C         8.514354   4.342398   -1.485723 C.2        1 UNL1     -0.0542
     5 C         9.524317   4.74488   -2.394052 C.2        1 UNL1     0.0115
     6 C         10.708648   4.237484   -3.261942 C.3        1 UNL1     -0.0348
     7 C         9.519433   6.253517   -2.942666 C.2        1 UNL1     0.2441
     8 O         10.274678   7.117878   -2.519568 O.2        1 UNL1     -0.2702
     9 N         8.774031   6.45035   -4.118159 N.am        1 UNL1     -0.2772
     10 C         7.461663   6.729897   -3.813419 C.2        1 UNL1     0.1049
     11 C         6.685349   5.688744   -3.573505 C.2        1 UNL1     0.0801
     12 C         6.027   8.181599   -2.367171 C.ar        1 UNL1     0.0753
     13 C         5.346311   6.984786   -1.976135 C.ar        1 UNL1     0.0305
     14 C         5.568968   5.717092   -2.667819 C.2        1 UNL1     0.0924
     15 N         6.907942   4.379429   -3.780083 N.pl3        1 UNL1     -0.3170
     16 C         5.680998   3.677421   -3.511669 C.3        1 UNL1     0.1275
     17 N         4.961031   4.54496   -2.508301 N.2        1 UNL1     -0.2557
     18 C         4.845578   3.722972   -4.787483 C.3        1 UNL1     0.0016
     19 C         5.665998   3.140058   -5.927093 C.3        1 UNL1     0.0026
     20 N         6.030964   1.771448   -5.588365 N.3        1 UNL1     -0.3018
     21 C         6.784981   1.61933   -4.342297 C.3        1 UNL1     0.0026
     22 C         5.940408   2.207202   -3.210486 C.3        1 UNL1     0.0016
     23 C         6.551575   1.030157   -6.719778 C.3        1 UNL1     0.0012
     24 C         5.432826   0.735215   -7.731295 C.3        1 UNL1     -0.0339
     25 C         5.776491   1.284063   -9.125826 C.3        1 UNL1     -0.0615
     26 C         5.147541   -0.756   -7.772173 C.3        1 UNL1     -0.0615
     27 C         5.721282   9.409109   -1.784183 C.ar        1 UNL1     0.1347
     28 C         4.73038   9.570523   -0.832286 C.ar        1 UNL1     0.0342
     29 C         4.107307   8.370895   -0.427518 C.ar        1 UNL1     0.1435
     30 C         4.428297   7.128856   -0.97663 C.ar        1 UNL1     0.0774
     31 O         3.047825   8.375005   0.410627 O.3        1 UNL1     -0.4436
     32 C         2.421171   7.099218   0.209274 C.3        1 UNL1     0.3143
     33 C         3.512894   6.204108   -0.341301 C.2        1 UNL1     0.2504
     34 C         4.17744   10.882258   -0.348852 C.3        1 UNL1     -0.0327
     35 O         2.073557   6.586698   1.501458 O.2        1 UNL1     -0.4528
     36 C         -1.011912   4.439701   0.973846 C.3        1 UNL1     0.0854
     37 C         -1.209763   3.195894   0.024466 C.3        1 UNL1     0.0236
     38 C         -1.727806   1.864798   0.753547 C.3        1 UNL1     0.1131
     39 C         -0.984932   1.338267   2.047059 C.3        1 UNL1     0.0200
     40 C         0.681642   1.312915   2.112826 C.3        1 UNL1     0.0661
     41 C         1.71282   0.662031   0.933575 C.3        1 UNL1     0.0091
     42 C         3.397503   1.169868   0.41459 C.3        1 UNL1     0.0661
     43 C         7.006815   8.087387   -3.477732 C.2        1 UNL1     0.2131
     44 O         7.350424   9.039417   -4.154718 O.2        1 UNL1     -0.2851
     45 O         6.462032   10.517738   -2.188745 O.3        1 UNL1     -0.5056
     46 O         3.615477   5.000794   -0.255479 O.2        1 UNL1     -0.2836
     47 C         5.441679   1.600672   2.073977 C.3        1 UNL1     -0.0566
     48 O         3.947473   -0.206825   0.451516 O.3        1 UNL1     -0.3909
     49 C         0.917115   0.417348   -0.329151 C.3        1 UNL1     -0.0577
     50 O         1.184428   2.555222   2.561829 O.3        1 UNL1     -0.3910
     51 O         -1.142986   4.187733   2.354702 O.3        1 UNL1     -0.3753
     52 C         -0.1388   3.156861   -1.114157 C.3        1 UNL1     -0.0564
     53 O         -2.238401   0.820216   -0.195383 O.3        1 UNL1     -0.4608
     54 C         -2.349212   -0.517721   0.079527 C.2        1 UNL1     0.3042
     55 O         -1.600156   -1.420829   -0.290811 O.2        1 UNL1     -0.2512
     56 C         -3.501246   -0.852508   0.983656 C.3        1 UNL1     0.0332
     57 C         -1.772501   1.903489   3.319235 C.3        1 UNL1     -0.0567
     58 C         1.347571   7.306949   -0.884235 C.3        1 UNL1     0.0210
     59 C         -1.553461   5.311181   3.132675 C.3        1 UNL1     0.0372
     60 C         0.270518   5.172595   0.791086 C.2        1 UNL1     -0.0208
     61 C         1.1355   5.63933   1.692589 C.2        1 UNL1     0.0882
     62 H         4.488442   2.998116   0.761419 H        1 UNL1     0.0365
     63 H         6.078391   4.023307   -0.007524 H        1 UNL1     0.0576
     64 H         8.249735   2.096594   -1.041842 H        1 UNL1     0.0615
     65 H         7.955924   5.205673   -1.113706 H        1 UNL1     0.0622
     66 H         -1.804684   5.141319   0.678396 H        1 UNL1     0.0645
     67 H         -2.086285   3.464675   -0.590372 H        1 UNL1     0.0362
     68 H         -2.709753   2.217415   1.104209 H        1 UNL1     0.0741
     69 H         -1.244041   0.298857   2.198381 H        1 UNL1     0.0359
     70 H         0.828244   0.628886   2.97054 H        1 UNL1     0.0600
     71 H         1.82495   -0.36899   1.322653 H        1 UNL1     0.0348
     72 H         3.240969   1.610743   1.4098 H        1 UNL1     0.0602
     73 H         0.389419   5.417909   -0.235039 H        1 UNL1     0.0628
     74 H         1.117143   5.386686   2.753283 H        1 UNL1     0.1022
     75 H         10.782504   3.124339   -3.212071 H        1 UNL1     0.0279
     76 H         10.639045   4.419935   -4.331959 H        1 UNL1     0.0279
     77 H         11.688213   4.537883   -2.862049 H        1 UNL1     0.0279
     78 H         8.784309   5.599168   -4.676246 H        1 UNL1     0.1553
     79 H         7.612298   4.025376   -4.400939 H        1 UNL1     0.1484
     80 H         3.920205   3.156018   -4.629324 H        1 UNL1     0.0317
     81 H         4.547405   4.750126   -5.023489 H        1 UNL1     0.0317
     82 H         6.558691   3.747091   -6.138098 H        1 UNL1     0.0428
     83 H         5.052205   3.183893   -6.827307 H        1 UNL1     0.0428
     84 H         6.977039   0.576761   -4.070314 H        1 UNL1     0.0428
     85 H         7.78664   2.06533   -4.41358 H        1 UNL1     0.0428
     86 H         6.459908   1.960245   -2.303227 H        1 UNL1     0.0317
     87 H         4.997   1.654848   -3.121142 H        1 UNL1     0.0317
     88 H         7.313551   1.648634   -7.211889 H        1 UNL1     0.0429
     89 H         7.047227   0.105618   -6.396776 H        1 UNL1     0.0429
     90 H         4.504947   1.208401   -7.388735 H        1 UNL1     0.0308
     91 H         6.803161   1.034131   -9.4097 H        1 UNL1     0.0233
     92 H         5.089888   0.887041   -9.877197 H        1 UNL1     0.0233
     93 H         5.688845   2.376043   -9.178107 H        1 UNL1     0.0233
     94 H         4.664075   -1.02226   -8.718324 H        1 UNL1     0.0233
     95 H         6.083362   -1.317504   -7.702065 H        1 UNL1     0.0233
     96 H         4.4915   -1.059418   -6.951494 H        1 UNL1     0.0233
     97 H         3.325101   10.747024   0.310285 H        1 UNL1     0.0280
     98 H         4.915393   11.455089   0.227815 H        1 UNL1     0.0280
     99 H         3.85431   11.487082   -1.211911 H        1 UNL1     0.0280
     100 H         5.946137   11.269722   -2.421114 H        1 UNL1     0.2922
     101 H         4.54788   1.374491   2.655028 H        1 UNL1     0.0236
     102 H         6.090865   2.312583   2.582626 H        1 UNL1     0.0236
     103 H         6.013579   0.657817   2.061789 H        1 UNL1     0.0236
     104 H         4.275284   -0.369281   1.357672 H        1 UNL1     0.2098
     105 H         0.688963   1.315619   -0.897366 H        1 UNL1     0.0234
     106 H         1.328082   -0.350208   -0.984813 H        1 UNL1     0.0234
     107 H         0.0   -0.0   0.0 H        1 UNL1     0.0234
     108 H         1.004126   3.211418   1.861352 H        1 UNL1     0.2098
     109 H         0.886209   3.116354   -0.719914 H        1 UNL1     0.0234
     110 H         -0.292172   2.334542   -1.821273 H        1 UNL1     0.0234
     111 H         -0.180964   4.057897   -1.740498 H        1 UNL1     0.0234
     112 H         -3.520163   -1.92894   1.179313 H        1 UNL1     0.0342
     113 H         -3.469794   -0.286853   1.91365 H        1 UNL1     0.0342
     114 H         -4.43283   -0.588137   0.464595 H        1 UNL1     0.0342
     115 H         -2.846276   1.676189   3.268938 H        1 UNL1     0.0234
     116 H         -1.4015   1.526708   4.274454 H        1 UNL1     0.0234
     117 H         -1.790231   3.005706   3.371626 H        1 UNL1     0.0234
     118 H         0.325826   7.314816   -0.465928 H        1 UNL1     0.0309
     119 H         1.50178   8.218694   -1.47002 H        1 UNL1     0.0309
     120 H         1.318453   6.48378   -1.60649 H        1 UNL1     0.0309
     121 H         -1.187316   5.160669   4.147879 H        1 UNL1     0.0524
     122 H         -1.12378   6.256524   2.761546 H        1 UNL1     0.0524
     123 H         -2.636739   5.392437   3.133096 H        1 UNL1     0.0524
@<TRIPOS>BOND
     1     1     2    1
     2     1    42    1
     3     2     3    2
     4     3     4    1
     5     4     5    2
     6     5     7    1
     7     6    75    1
     8     6    76    1
     9     6    77    1
    10     7     9   am
    11     9    10    1
    12    10    11    2
    13    10    43    1
    14    11    14    1
    15    11    15    1
    16    12    13   ar
    17    12    27   ar
    18    12    43    1
    19    13    14    1
    20    13    30   ar
    21    14    17    2
    22    15    16    1
    23    16    17    1
    24    16    18    1
    25    16    22    1
    26    18    19    1
    27    19    20    1
    28    20    21    1
    29    21    22    1
    30    23    24    1
    31    23    88    1
    32    23    89    1
    33    24    25    1
    34    24    26    1
    35    24    90    1
    36    25    91    1
    37    25    92    1
    38    25    93    1
    39    26    94    1
    40    26    95    1
    41    26    96    1
    42    27    28   ar
    43    28    29   ar
    44    29    30   ar
    45    29    31    1
    46    30    33    1
    47    31    32    1
    48    32    33    1
    49    32    35    1
    50    34    97    1
    51    34    98    1
    52    34    99    1
    53    35    61    1
    54    36    37    1
    55    36    60    1
    56    37    38    1
    57    38    39    1
    58    39    40    1
    59    40    41    1
    60    41    42    1
    61    45   100    1
    62    47   101    1
    63    47   102    1
    64    47   103    1
    65    48   104    1
    66    49   105    1
    67    49   106    1
    68    49   107    1
    69    50   108    1
    70    51    59    1
    71    52   109    1
    72    52   110    1
    73    52   111    1
    74    53    54    1
    75    54    55    2
    76    54    56    1
    77    56   112    1
    78    56   113    1
    79    56   114    1
    80    57   115    1
    81    57   116    1
    82    57   117    1
    83    58   118    1
    84    58   119    1
    85    58   120    1
    86    59   121    1
    87    59   122    1
    88    59   123    1
    89    60    61    2
    90     1    47    1
    91     1    62    1
    92     2    63    1
    93     3    64    1
    94     4    65    1
    95     5     6    1
    96     7     8    2
    97     9    78    1
    98    15    79    1
    99    18    80    1
   100    18    81    1
   101    19    82    1
   102    19    83    1
   103    20    23    1
   104    21    84    1
   105    21    85    1
   106    22    86    1
   107    22    87    1
   108    27    45    1
   109    28    34    1
   110    32    58    1
   111    33    46    2
   112    36    51    1
   113    36    66    1
   114    37    52    1
   115    37    67    1
   116    38    53    1
   117    38    68    1
   118    42    48    1
   119    42    72    1
   120    43    44    2
   121    60    73    1
   122    61    74    1
   123    39    69    1
   124    39    57    1
   125    40    70    1
   126    40    50    1
   127    41    71    1
   128    41    49    1
