@<TRIPOS>MOLECULE
*****
 123 128 0 0 0
SMALL
GASTEIGER

@<TRIPOS>ATOM
     1 C         5.186836   1.703199   0.44172 C.3        1 UNL1     0.0009
     2 C         6.623418   2.493684   -0.423382 C.2        1 UNL1     -0.0787
     3 C         7.898591   2.38187   -1.099753 C.2        1 UNL1     -0.0649
     4 C         8.78068   3.606715   -1.866584 C.2        1 UNL1     -0.0542
     5 C         9.795221   3.887285   -2.814775 C.2        1 UNL1     0.0115
     6 C         10.91023   3.249041   -3.688114 C.3        1 UNL1     -0.0348
     7 C         9.898791   5.367804   -3.426595 C.2        1 UNL1     0.2441
     8 O         10.733301   6.183047   -3.058494 O.2        1 UNL1     -0.2702
     9 N         9.140453   5.578102   -4.591435 N.am        1 UNL1     -0.2772
     10 C         7.864037   5.977359   -4.267895 C.2        1 UNL1     0.1049
     11 C         7.012018   5.014547   -3.965771 C.2        1 UNL1     0.0801
     12 C         6.592422   7.599934   -2.851004 C.ar        1 UNL1     0.0753
     13 C         5.827041   6.4803   -2.393596 C.ar        1 UNL1     0.0305
     14 C         5.926586   5.171678   -3.035974 C.2        1 UNL1     0.0924
     15 N         7.121215   3.684042   -4.121849 N.pl3        1 UNL1     -0.3170
     16 C         5.848721   3.097377   -3.794991 C.3        1 UNL1     0.1275
     17 N         5.229443   4.061267   -2.812578 N.2        1 UNL1     -0.2557
     18 C         4.985626   3.160441   -5.05149 C.3        1 UNL1     0.0016
     19 C         5.724557   2.466163   -6.184428 C.3        1 UNL1     0.0026
     20 N         5.985498   1.086816   -5.796692 N.3        1 UNL1     -0.3018
     21 C         6.757982   0.923174   -4.563461 C.3        1 UNL1     0.0026
     22 C         5.995181   1.624074   -3.437954 C.3        1 UNL1     0.0016
     23 C         6.413014   0.259975   -6.907642 C.3        1 UNL1     0.0012
     24 C         5.246965   0.018095   -7.879023 C.3        1 UNL1     -0.0339
     25 C         5.27161   1.017531   -9.047174 C.3        1 UNL1     -0.0615
     26 C         5.269085   -1.418382   -8.371797 C.3        1 UNL1     -0.0615
     27 C         6.403902   8.871035   -2.313527 C.ar        1 UNL1     0.1347
     28 C         5.455605   9.152144   -1.346181 C.ar        1 UNL1     0.0342
     29 C         4.747768   8.025493   -0.8763 C.ar        1 UNL1     0.1435
     30 C         4.951232   6.740026   -1.379685 C.ar        1 UNL1     0.0774
     31 O         3.715216   8.151058   -0.01428 O.3        1 UNL1     -0.4436
     32 C         2.981198   6.924432   -0.146492 C.3        1 UNL1     0.3143
     33 C         3.980843   5.920576   -0.684261 C.2        1 UNL1     0.2504
     34 C         5.02497   10.52356   -0.90587 C.3        1 UNL1     -0.0327
     35 O         2.627937   6.494949   1.174116 O.2        1 UNL1     -0.4528
     36 C         -0.63578   4.591153   0.811075 C.3        1 UNL1     0.0854
     37 C         -0.960199   3.330729   -0.079771 C.3        1 UNL1     0.0236
     38 C         -1.565369   2.07755   0.717133 C.3        1 UNL1     0.1131
     39 C         -0.833298   1.54392   2.013891 C.3        1 UNL1     0.0200
     40 C         0.826799   1.383402   2.041273 C.3        1 UNL1     0.0661
     41 C         1.769079   0.602401   0.866643 C.3        1 UNL1     0.0091
     42 C         3.474973   0.947736   0.286926 C.3        1 UNL1     0.0661
     43 C         7.530874   7.380261   -3.979415 C.2        1 UNL1     0.2131
     44 O         7.932692   8.27252   -4.70409 O.2        1 UNL1     -0.2851
     45 O         7.221549   9.897342   -2.782125 O.3        1 UNL1     -0.5056
     46 O         3.987044   4.717342   -0.549942 O.2        1 UNL1     -0.2836
     47 C         5.591635   1.27443   1.877783 C.3        1 UNL1     -0.0566
     48 O         3.911412   -0.467139   0.369186 O.3        1 UNL1     -0.3909
     49 C         0.92219   0.373705   -0.365417 C.3        1 UNL1     -0.0577
     50 O         1.441368   2.596924   2.425189 O.3        1 UNL1     -0.3910
     51 O         -0.749618   4.40677   2.204084 O.3        1 UNL1     -0.3753
     52 C         0.072812   3.157327   -1.240705 C.3        1 UNL1     -0.0564
     53 O         -2.185081   1.041406   -0.174321 O.3        1 UNL1     -0.4608
     54 C         -2.415977   -0.265609   0.166752 C.2        1 UNL1     0.3042
     55 O         -1.856466   -1.26488   -0.282961 O.2        1 UNL1     -0.2512
     56 C         -3.437472   -0.431543   1.255663 C.3        1 UNL1     0.0332
     57 C         -1.537361   2.223208   3.279212 C.3        1 UNL1     -0.0567
     58 C         1.898988   7.176049   -1.22215 C.3        1 UNL1     0.0210
     59 C         -1.076745   5.584685   2.939862 C.3        1 UNL1     0.0372
     60 C         0.696834   5.207433   0.567149 C.2        1 UNL1     -0.0208
     61 C         1.62112   5.636943   1.427358 C.2        1 UNL1     0.0882
     62 H         4.720628   2.691916   0.530044 H        1 UNL1     0.0365
     63 H         6.367653   3.550171   -0.319033 H        1 UNL1     0.0576
     64 H         8.345541   1.410242   -1.321748 H        1 UNL1     0.0615
     65 H         8.304919   4.527537   -1.518414 H        1 UNL1     0.0622
     66 H         -1.37627   5.343491   0.504957 H        1 UNL1     0.0645
     67 H         -1.828131   3.646123   -0.684568 H        1 UNL1     0.0362
     68 H         -2.505378   2.524072   1.075634 H        1 UNL1     0.0741
     69 H         -1.172284   0.536468   2.215231 H        1 UNL1     0.0359
     70 H         0.940157   0.724722   2.923515 H        1 UNL1     0.0600
     71 H         1.80707   -0.417836   1.296329 H        1 UNL1     0.0348
     72 H         3.381954   1.439814   1.265967 H        1 UNL1     0.0602
     73 H         0.807592   5.400498   -0.470978 H        1 UNL1     0.0628
     74 H         1.610868   5.429651   2.497948 H        1 UNL1     0.1022
     75 H         10.946   2.143866   -3.532089 H        1 UNL1     0.0279
     76 H         10.788079   3.32963   -4.765914 H        1 UNL1     0.0279
     77 H         11.9208   3.545568   -3.371063 H        1 UNL1     0.0279
     78 H         9.066052   4.707186   -5.113015 H        1 UNL1     0.1553
     79 H         7.77724   3.248171   -4.743605 H        1 UNL1     0.1484
     80 H         4.021637   2.678855   -4.84761 H        1 UNL1     0.0317
     81 H         4.766106   4.198396   -5.323725 H        1 UNL1     0.0317
     82 H         6.657832   2.988232   -6.442019 H        1 UNL1     0.0428
     83 H         5.092281   2.524318   -7.070935 H        1 UNL1     0.0428
     84 H         6.871493   -0.119898   -4.252131 H        1 UNL1     0.0428
     85 H         7.790438   1.281509   -4.677242 H        1 UNL1     0.0428
     86 H         6.517107   1.371747   -2.533568 H        1 UNL1     0.0317
     87 H         5.012557   1.155743   -3.303 H        1 UNL1     0.0317
     88 H         7.209391   0.792926   -7.443404 H        1 UNL1     0.0429
     89 H         6.840017   -0.688637   -6.557532 H        1 UNL1     0.0429
     90 H         4.299723   0.13506   -7.339335 H        1 UNL1     0.0308
     91 H         6.2166   0.964542   -9.596073 H        1 UNL1     0.0233
     92 H         4.445469   0.826855   -9.736189 H        1 UNL1     0.0233
     93 H         5.156483   2.055253   -8.711446 H        1 UNL1     0.0233
     94 H         4.564495   -1.544127   -9.201 H        1 UNL1     0.0233
     95 H         6.26809   -1.672852   -8.736758 H        1 UNL1     0.0233
     96 H         4.995157   -2.11732   -7.576551 H        1 UNL1     0.0233
     97 H         4.237608   10.483217   -0.159101 H        1 UNL1     0.0280
     98 H         5.846861   11.087591   -0.445848 H        1 UNL1     0.0280
     99 H         4.648954   11.088856   -1.774287 H        1 UNL1     0.0280
     100 H         6.758574   10.650934   -3.103644 H        1 UNL1     0.2922
     101 H         4.729304   0.850173   2.391639 H        1 UNL1     0.0236
     102 H         6.054666   2.077376   2.450377 H        1 UNL1     0.0236
     103 H         6.340537   0.464916   1.872668 H        1 UNL1     0.0236
     104 H         4.337288   -0.594315   1.239489 H        1 UNL1     0.2098
     105 H         0.712776   1.272707   -0.939656 H        1 UNL1     0.0234
     106 H         1.278758   -0.41961   -1.022256 H        1 UNL1     0.0234
     107 H         0.0   -0.0   0.0 H        1 UNL1     0.0234
     108 H         1.242834   3.254868   1.731314 H        1 UNL1     0.2098
     109 H         1.099811   3.035679   -0.868968 H        1 UNL1     0.0234
     110 H         -0.172958   2.330338   -1.91556 H        1 UNL1     0.0234
     111 H         0.096389   4.037946   -1.896372 H        1 UNL1     0.0234
     112 H         -3.570231   -1.493702   1.482685 H        1 UNL1     0.0342
     113 H         -3.17602   0.129746   2.151454 H        1 UNL1     0.0342
     114 H         -4.397214   -0.043257   0.887837 H        1 UNL1     0.0342
     115 H         -2.603426   1.964625   3.341082 H        1 UNL1     0.0234
     116 H         -1.07996   1.961452   4.235411 H        1 UNL1     0.0234
     117 H         -1.588368   3.323821   3.216039 H        1 UNL1     0.0234
     118 H         1.005948   7.672364   -0.803632 H        1 UNL1     0.0309
     119 H         2.266376   7.758104   -2.07329 H        1 UNL1     0.0309
     120 H         1.498341   6.246388   -1.640862 H        1 UNL1     0.0309
     121 H         -0.267196   6.299488   2.794798 H        1 UNL1     0.0524
     122 H         -2.005758   6.05787   2.580603 H        1 UNL1     0.0524
     123 H         -1.185513   5.350619   3.995076 H        1 UNL1     0.0524
@<TRIPOS>BOND
     1     1     2    1
     2     1    42    1
     3     2     3    2
     4     3     4    1
     5     4     5    2
     6     5     7    1
     7     6    75    1
     8     6    76    1
     9     6    77    1
    10     7     9   am
    11     9    10    1
    12    10    11    2
    13    10    43    1
    14    11    14    1
    15    11    15    1
    16    12    13   ar
    17    12    27   ar
    18    12    43    1
    19    13    14    1
    20    13    30   ar
    21    14    17    2
    22    15    16    1
    23    16    17    1
    24    16    18    1
    25    16    22    1
    26    18    19    1
    27    19    20    1
    28    20    21    1
    29    21    22    1
    30    23    24    1
    31    23    88    1
    32    23    89    1
    33    24    25    1
    34    24    26    1
    35    24    90    1
    36    25    91    1
    37    25    92    1
    38    25    93    1
    39    26    94    1
    40    26    95    1
    41    26    96    1
    42    27    28   ar
    43    28    29   ar
    44    29    30   ar
    45    29    31    1
    46    30    33    1
    47    31    32    1
    48    32    33    1
    49    32    35    1
    50    34    97    1
    51    34    98    1
    52    34    99    1
    53    35    61    1
    54    36    37    1
    55    36    60    1
    56    37    38    1
    57    38    39    1
    58    39    40    1
    59    40    41    1
    60    41    42    1
    61    45   100    1
    62    47   101    1
    63    47   102    1
    64    47   103    1
    65    48   104    1
    66    49   105    1
    67    49   106    1
    68    49   107    1
    69    50   108    1
    70    51    59    1
    71    52   109    1
    72    52   110    1
    73    52   111    1
    74    53    54    1
    75    54    55    2
    76    54    56    1
    77    56   112    1
    78    56   113    1
    79    56   114    1
    80    57   115    1
    81    57   116    1
    82    57   117    1
    83    58   118    1
    84    58   119    1
    85    58   120    1
    86    59   121    1
    87    59   122    1
    88    59   123    1
    89    60    61    2
    90     1    47    1
    91     1    62    1
    92     2    63    1
    93     3    64    1
    94     4    65    1
    95     5     6    1
    96     7     8    2
    97     9    78    1
    98    15    79    1
    99    18    80    1
   100    18    81    1
   101    19    82    1
   102    19    83    1
   103    20    23    1
   104    21    84    1
   105    21    85    1
   106    22    86    1
   107    22    87    1
   108    27    45    1
   109    28    34    1
   110    32    58    1
   111    33    46    2
   112    36    51    1
   113    36    66    1
   114    37    52    1
   115    37    67    1
   116    38    53    1
   117    38    68    1
   118    42    48    1
   119    42    72    1
   120    43    44    2
   121    60    73    1
   122    61    74    1
   123    39    69    1
   124    39    57    1
   125    40    70    1
   126    40    50    1
   127    41    71    1
   128    41    49    1
