@<TRIPOS>MOLECULE
*****
 123 128 0 0 0
SMALL
GASTEIGER

@<TRIPOS>ATOM
     1 C         0.92872   -5.032209   -1.56033 C.3        1 UNL1     0.0009
     2 C         0.56551   -6.228174   -2.929557 C.2        1 UNL1     -0.0787
     3 C         -0.08443   -7.430153   -3.407961 C.2        1 UNL1     -0.0649
     4 C         -0.141714   -8.021559   -4.993305 C.2        1 UNL1     -0.0542
     5 C         -0.829118   -8.877053   -5.88923 C.2        1 UNL1     0.0115
     6 C         -1.911833   -9.986883   -5.985808 C.3        1 UNL1     -0.0348
     7 C         -0.619237   -8.678476   -7.468314 C.2        1 UNL1     0.2441
     8 O         0.101763   -9.40331   -8.140104 O.2        1 UNL1     -0.2702
     9 N         -1.51783   -7.782952   -8.073886 N.am        1 UNL1     -0.2772
     10 C         -1.029677   -6.49793   -8.012668 C.2        1 UNL1     0.1049
     11 C         -1.243971   -5.847075   -6.883647 C.2        1 UNL1     0.0801
     12 C         1.01699   -5.130246   -8.45756 C.ar        1 UNL1     0.0753
     13 C         0.858179   -4.60535   -7.135489 C.ar        1 UNL1     0.0305
     14 C         -0.35315   -4.849546   -6.355679 C.2        1 UNL1     0.0924
     15 N         -2.04519   -6.15316   -5.848809 N.pl3        1 UNL1     -0.3170
     16 C         -2.047221   -5.031319   -4.947854 C.3        1 UNL1     0.1275
     17 N         -0.710439   -4.366635   -5.169059 N.2        1 UNL1     -0.2557
     18 C         -3.098133   -4.047475   -5.453164 C.3        1 UNL1     0.0016
     19 C         -4.431219   -4.771022   -5.557821 C.3        1 UNL1     0.0026
     20 N         -4.786932   -5.288627   -4.243826 N.3        1 UNL1     -0.3018
     21 C         -3.805875   -6.19739   -3.647132 C.3        1 UNL1     0.0026
     22 C         -2.475756   -5.448595   -3.547216 C.3        1 UNL1     0.0016
     23 C         -6.165237   -5.73002   -4.165779 C.3        1 UNL1     0.0012
     24 C         -6.497718   -6.66754   -5.337218 C.3        1 UNL1     -0.0339
     25 C         -7.954945   -6.497683   -5.797321 C.3        1 UNL1     -0.0615
     26 C         -5.521261   -6.441603   -6.478386 C.3        1 UNL1     -0.0615
     27 C         2.119295   -4.794203   -9.239939 C.ar        1 UNL1     0.1347
     28 C         3.103737   -3.915091   -8.825105 C.ar        1 UNL1     0.0342
     29 C         2.951842   -3.449076   -7.501881 C.ar        1 UNL1     0.1435
     30 C         1.871777   -3.805535   -6.693416 C.ar        1 UNL1     0.0774
     31 O         3.76784   -2.501741   -6.990304 O.3        1 UNL1     -0.4436
     32 C         3.044734   -1.965622   -5.872016 C.3        1 UNL1     0.3143
     33 C         2.070528   -3.054883   -5.47121 C.2        1 UNL1     0.2504
     34 C         4.173644   -3.315399   -9.694455 C.3        1 UNL1     -0.0327
     35 O         3.975856   -1.820809   -4.792529 O.2        1 UNL1     -0.4528
     36 C         2.730723   1.112912   -2.73073 C.3        1 UNL1     0.0854
     37 C         1.331098   1.317704   -2.033138 C.3        1 UNL1     0.0236
     38 C         1.398449   1.629645   -0.461546 C.3        1 UNL1     0.1131
     39 C         2.24976   0.694505   0.488745 C.3        1 UNL1     0.0200
     40 C         2.182376   -0.963981   0.323451 C.3        1 UNL1     0.0661
     41 C         0.768493   -1.896965   0.233536 C.3        1 UNL1     0.0091
     42 C         0.42805   -3.45781   -0.668277 C.3        1 UNL1     0.0661
     43 C         -0.076139   -5.973594   -9.001703 C.2        1 UNL1     0.2131
     44 O         -0.260103   -6.151354   -10.192206 O.2        1 UNL1     -0.2851
     45 O         2.221407   -5.384338   -10.498014 O.3        1 UNL1     -0.5056
     46 O         1.585097   -3.268515   -4.38283 O.2        1 UNL1     -0.2836
     47 C         1.955236   -5.643133   -0.568856 C.3        1 UNL1     -0.0566
     48 O         -0.211102   -4.122737   0.492961 O.3        1 UNL1     -0.3909
     49 C         -0.407262   -0.978541   -0.014639 C.3        1 UNL1     -0.0577
     50 O         3.117674   -1.410242   -0.63769 O.3        1 UNL1     -0.3910
     51 O         3.845549   1.054913   -1.869782 O.3        1 UNL1     -0.3753
     52 C         0.232327   0.39225   -2.650541 C.3        1 UNL1     -0.0564
     53 O         0.112381   2.160578   0.101005 O.3        1 UNL1     -0.4608
     54 C         -1.041002   2.367213   -0.609587 C.2        1 UNL1     0.3042
     55 O         -1.35867   1.856327   -1.682863 O.2        1 UNL1     -0.2512
     56 C         -2.012015   3.287141   0.074211 C.3        1 UNL1     0.0332
     57 C         3.689761   1.368094   0.664391 C.3        1 UNL1     -0.0567
     58 C         2.246142   -0.754428   -6.407544 C.3        1 UNL1     0.0210
     59 C         4.528503   -0.197794   -1.857043 C.3        1 UNL1     0.0372
     60 C         2.818988   -0.071514   -3.627672 C.2        1 UNL1     -0.0208
     61 C         3.772654   -0.996162   -3.747228 C.2        1 UNL1     0.0882
     62 H         1.502676   -4.423927   -2.269752 H        1 UNL1     0.0365
     63 H         1.18586   -5.817182   -3.728757 H        1 UNL1     0.0576
     64 H         -0.765468   -8.003335   -2.774907 H        1 UNL1     0.0615
     65 H         0.623368   -7.440968   -5.515844 H        1 UNL1     0.0622
     66 H         2.84669   1.992007   -3.380182 H        1 UNL1     0.0645
     67 H         0.970749   2.281479   -2.432946 H        1 UNL1     0.0362
     68 H         1.93832   2.588498   -0.487304 H        1 UNL1     0.0741
     69 H         1.922523   0.844606   1.508938 H        1 UNL1     0.0359
     70 H         2.616234   -1.27018   1.294569 H        1 UNL1     0.0600
     71 H         0.630143   -2.141987   1.304881 H        1 UNL1     0.0348
     72 H         1.522542   -3.385545   -0.589646 H        1 UNL1     0.0602
     73 H         2.015838   -0.044765   -4.321562 H        1 UNL1     0.0628
     74 H         4.596146   -1.127143   -3.044418 H        1 UNL1     0.1022
     75 H         -1.807042   -10.554661   -6.941675 H        1 UNL1     0.0279
     76 H         -1.865866   -10.775829   -5.238465 H        1 UNL1     0.0279
     77 H         -2.929216   -9.580977   -6.085173 H        1 UNL1     0.0279
     78 H         -2.404534   -7.797927   -7.574277 H        1 UNL1     0.1553
     79 H         -2.80585   -6.805023   -5.90715 H        1 UNL1     0.1484
     80 H         -3.156124   -3.199211   -4.760452 H        1 UNL1     0.0317
     81 H         -2.813392   -3.637203   -6.427972 H        1 UNL1     0.0317
     82 H         -4.399294   -5.577205   -6.305458 H        1 UNL1     0.0428
     83 H         -5.165692   -4.051776   -5.921529 H        1 UNL1     0.0428
     84 H         -4.058628   -6.508342   -2.628684 H        1 UNL1     0.0428
     85 H         -3.731943   -7.141809   -4.20384 H        1 UNL1     0.0428
     86 H         -1.822182   -6.092612   -2.988583 H        1 UNL1     0.0317
     87 H         -2.586684   -4.572968   -2.89601 H        1 UNL1     0.0317
     88 H         -6.293622   -6.284586   -3.22702 H        1 UNL1     0.0429
     89 H         -6.855716   -4.877427   -4.132663 H        1 UNL1     0.0429
     90 H         -6.350955   -7.706389   -5.018678 H        1 UNL1     0.0308
     91 H         -8.300645   -7.373355   -6.354809 H        1 UNL1     0.0233
     92 H         -8.613807   -6.334488   -4.941238 H        1 UNL1     0.0233
     93 H         -8.08689   -5.629676   -6.454579 H        1 UNL1     0.0233
     94 H         -5.438191   -7.347015   -7.089257 H        1 UNL1     0.0233
     95 H         -5.878914   -5.63265   -7.121535 H        1 UNL1     0.0233
     96 H         -4.525835   -6.183079   -6.10655 H        1 UNL1     0.0233
     97 H         4.635739   -4.055527   -10.340915 H        1 UNL1     0.0280
     98 H         3.777607   -2.538832   -10.361805 H        1 UNL1     0.0280
     99 H         4.958806   -2.871949   -9.060446 H        1 UNL1     0.0280
     100 H         1.805139   -4.902913   -11.191248 H        1 UNL1     0.2922
     101 H         2.757334   -6.129689   -1.123434 H        1 UNL1     0.0236
     102 H         1.500167   -6.310543   0.162211 H        1 UNL1     0.0236
     103 H         2.460507   -4.869507   0.033138 H        1 UNL1     0.0236
     104 H         -0.900696   -3.520619   0.834844 H        1 UNL1     0.2098
     105 H         -0.89408   -1.121961   -0.976019 H        1 UNL1     0.0234
     106 H         -1.147806   -0.960644   0.784861 H        1 UNL1     0.0234
     107 H         0.0   0.0   0.0 H        1 UNL1     0.0234
     108 H         3.509944   -0.617033   -1.050862 H        1 UNL1     0.2098
     109 H         -0.124735   -0.362992   -1.93652 H        1 UNL1     0.0234
     110 H         -0.621254   0.947611   -3.053924 H        1 UNL1     0.0234
     111 H         0.614831   -0.170798   -3.512292 H        1 UNL1     0.0234
     112 H         -2.010366   4.263634   -0.419553 H        1 UNL1     0.0342
     113 H         -3.016851   2.86894   0.109648 H        1 UNL1     0.0342
     114 H         -1.675408   3.432879   1.109885 H        1 UNL1     0.0342
     115 H         4.26125   1.360798   -0.273978 H        1 UNL1     0.0234
     116 H         3.656888   2.399562   1.020821 H        1 UNL1     0.0234
     117 H         4.363304   0.79958   1.328524 H        1 UNL1     0.0234
     118 H         2.563849   -0.465296   -7.424634 H        1 UNL1     0.0309
     119 H         1.163763   -0.917643   -6.40326 H        1 UNL1     0.0309
     120 H         2.418013   0.154847   -5.821211 H        1 UNL1     0.0309
     121 H         3.786053   -0.979685   -2.014432 H        1 UNL1     0.0524
     122 H         5.271533   -0.277475   -2.667965 H        1 UNL1     0.0524
     123 H         5.029576   -0.343021   -0.90419 H        1 UNL1     0.0524
@<TRIPOS>BOND
     1     1     2    1
     2     1    42    1
     3     2     3    2
     4     3     4    1
     5     4     5    2
     6     5     7    1
     7     6    75    1
     8     6    76    1
     9     6    77    1
    10     7     9   am
    11     9    10    1
    12    10    11    2
    13    10    43    1
    14    11    14    1
    15    11    15    1
    16    12    13   ar
    17    12    27   ar
    18    12    43    1
    19    13    14    1
    20    13    30   ar
    21    14    17    2
    22    15    16    1
    23    16    17    1
    24    16    18    1
    25    16    22    1
    26    18    19    1
    27    19    20    1
    28    20    21    1
    29    21    22    1
    30    23    24    1
    31    23    88    1
    32    23    89    1
    33    24    25    1
    34    24    26    1
    35    24    90    1
    36    25    91    1
    37    25    92    1
    38    25    93    1
    39    26    94    1
    40    26    95    1
    41    26    96    1
    42    27    28   ar
    43    28    29   ar
    44    29    30   ar
    45    29    31    1
    46    30    33    1
    47    31    32    1
    48    32    33    1
    49    32    35    1
    50    34    97    1
    51    34    98    1
    52    34    99    1
    53    35    61    1
    54    36    37    1
    55    36    60    1
    56    37    38    1
    57    38    39    1
    58    39    40    1
    59    40    41    1
    60    41    42    1
    61    45   100    1
    62    47   101    1
    63    47   102    1
    64    47   103    1
    65    48   104    1
    66    49   105    1
    67    49   106    1
    68    49   107    1
    69    50   108    1
    70    51    59    1
    71    52   109    1
    72    52   110    1
    73    52   111    1
    74    53    54    1
    75    54    55    2
    76    54    56    1
    77    56   112    1
    78    56   113    1
    79    56   114    1
    80    57   115    1
    81    57   116    1
    82    57   117    1
    83    58   118    1
    84    58   119    1
    85    58   120    1
    86    59   121    1
    87    59   122    1
    88    59   123    1
    89    60    61    2
    90     1    47    1
    91     1    62    1
    92     2    63    1
    93     3    64    1
    94     4    65    1
    95     5     6    1
    96     7     8    2
    97     9    78    1
    98    15    79    1
    99    18    80    1
   100    18    81    1
   101    19    82    1
   102    19    83    1
   103    20    23    1
   104    21    84    1
   105    21    85    1
   106    22    86    1
   107    22    87    1
   108    27    45    1
   109    28    34    1
   110    32    58    1
   111    33    46    2
   112    36    51    1
   113    36    66    1
   114    37    52    1
   115    37    67    1
   116    38    53    1
   117    38    68    1
   118    42    48    1
   119    42    72    1
   120    43    44    2
   121    60    73    1
   122    61    74    1
   123    39    69    1
   124    39    57    1
   125    40    70    1
   126    40    50    1
   127    41    71    1
   128    41    49    1
