@<TRIPOS>MOLECULE
*****
 123 128 0 0 0
SMALL
GASTEIGER

@<TRIPOS>ATOM
     1 C         4.8576   2.424117   0.734256 C.3        1 UNL1     0.0009
     2 C         6.236968   3.369523   -0.066112 C.2        1 UNL1     -0.0787
     3 C         7.56896   3.410178   -0.631966 C.2        1 UNL1     -0.0649
     4 C         8.33134   4.708355   -1.406479 C.2        1 UNL1     -0.0542
     5 C         9.374204   5.083616   -2.288915 C.2        1 UNL1     0.0115
     6 C         10.640149   4.57019   -3.028577 C.3        1 UNL1     -0.0348
     7 C         9.319152   6.528196   -2.986874 C.2        1 UNL1     0.2441
     8 O         9.994249   7.475877   -2.609153 O.2        1 UNL1     -0.2702
     9 N         8.642674   6.561752   -4.218703 N.am        1 UNL1     -0.2772
     10 C         7.299264   6.785833   -4.022847 C.2        1 UNL1     0.1049
     11 C         6.569666   5.725882   -3.725506 C.2        1 UNL1     0.0801
     12 C         5.691879   8.277669   -2.819488 C.ar        1 UNL1     0.0753
     13 C         5.056501   7.08392   -2.350586 C.ar        1 UNL1     0.0305
     14 C         5.396324   5.771513   -2.895709 C.2        1 UNL1     0.0924
     15 N         6.879887   4.419441   -3.784679 N.pl3        1 UNL1     -0.3170
     16 C         5.680103   3.670512   -3.520334 C.3        1 UNL1     0.1275
     17 N         4.847242   4.584318   -2.654871 N.2        1 UNL1     -0.2557
     18 C         4.929203   3.538318   -4.841839 C.3        1 UNL1     0.0016
     19 C         5.85482   2.900293   -5.865434 C.3        1 UNL1     0.0026
     20 N         6.274382   1.597173   -5.36857 N.3        1 UNL1     -0.3018
     21 C         6.952243   1.615457   -4.070671 C.3        1 UNL1     0.0026
     22 C         6.002794   2.256113   -3.056768 C.3        1 UNL1     0.0016
     23 C         6.909851   0.78362   -6.385897 C.3        1 UNL1     0.0012
     24 C         5.878784   0.321039   -7.427375 C.3        1 UNL1     -0.0339
     25 C         6.211358   -1.081033   -7.963701 C.3        1 UNL1     -0.0615
     26 C         4.480773   0.376369   -6.836374 C.3        1 UNL1     -0.0615
     27 C         5.278763   9.534293   -2.383199 C.ar        1 UNL1     0.1347
     28 C         4.21977   9.724555   -1.513495 C.ar        1 UNL1     0.0342
     29 C         3.641047   8.533007   -1.027228 C.ar        1 UNL1     0.1435
     30 C         4.067979   7.266225   -1.427491 C.ar        1 UNL1     0.0774
     31 O         2.530216   8.551589   -0.258646 O.3        1 UNL1     -0.4436
     32 C         1.992162   7.225061   -0.366789 C.3        1 UNL1     0.3143
     33 C         3.167147   6.351622   -0.757589 C.2        1 UNL1     0.2504
     34 C         3.562105   11.039435   -1.19938 C.3        1 UNL1     -0.0327
     35 O         1.590163   6.819977   0.947577 O.2        1 UNL1     -0.4528
     36 C         -1.326052   4.440299   0.456748 C.3        1 UNL1     0.0854
     37 C         -1.389547   3.0998   -0.371837 C.3        1 UNL1     0.0236
     38 C         -1.877461   1.815969   0.456089 C.3        1 UNL1     0.1131
     39 C         -1.19241   1.466302   1.838373 C.3        1 UNL1     0.0200
     40 C         0.464942   1.553301   2.005867 C.3        1 UNL1     0.0661
     41 C         1.607009   0.857276   0.962391 C.3        1 UNL1     0.0091
     42 C         3.290381   1.417966   0.49625 C.3        1 UNL1     0.0661
     43 C         6.746423   8.137975   -3.854226 C.2        1 UNL1     0.2131
     44 O         7.078818   9.039325   -4.602437 O.2        1 UNL1     -0.2851
     45 O         5.979905   10.642949   -2.853007 O.3        1 UNL1     -0.5056
     46 O         3.332514   5.17136   -0.544305 O.2        1 UNL1     -0.2836
     47 C         5.192955   2.137396   2.222647 C.3        1 UNL1     -0.0566
     48 O         3.914564   0.089126   0.705286 O.3        1 UNL1     -0.3909
     49 C         0.911411   0.440616   -0.314336 C.3        1 UNL1     -0.0577
     50 O         0.86522   2.862865   2.355928 O.3        1 UNL1     -0.3910
     51 O         -1.533071   4.316386   1.845711 O.3        1 UNL1     -0.3753
     52 C         -0.245512   3.017958   -1.434586 C.3        1 UNL1     -0.0564
     53 O         -2.263933   0.653538   -0.410928 O.3        1 UNL1     -0.4608
     54 C         -3.361696   -0.1457   -0.226364 C.2        1 UNL1     0.3042
     55 O         -3.390604   -1.272849   0.266118 O.2        1 UNL1     -0.2512
     56 C         -4.652988   0.501384   -0.639354 C.3        1 UNL1     0.0332
     57 C         -2.093011   2.101768   2.99737 C.3        1 UNL1     -0.0567
     58 C         0.982718   7.256609   -1.537924 C.3        1 UNL1     0.0210
     59 C         -2.785681   4.815852   2.311939 C.3        1 UNL1     0.0372
     60 C         -0.078396   5.231778   0.277649 C.2        1 UNL1     -0.0208
     61 C         0.697284   5.838152   1.177303 C.2        1 UNL1     0.0882
     62 H         4.249785   3.336853   0.720631 H        1 UNL1     0.0365
     63 H         5.825641   4.380995   -0.051815 H        1 UNL1     0.0576
     64 H         8.166966   2.504298   -0.753942 H        1 UNL1     0.0615
     65 H         7.701186   5.566606   -1.157895 H        1 UNL1     0.0622
     66 H         -2.136493   5.058028   0.044872 H        1 UNL1     0.0645
     67 H         -2.23765   3.25117   -1.062032 H        1 UNL1     0.0362
     68 H         -2.898908   2.138071   0.709895 H        1 UNL1     0.0741
     69 H         -1.401042   0.432265   2.078476 H        1 UNL1     0.0359
     70 H         0.593672   0.966866   2.935697 H        1 UNL1     0.0600
     71 H         1.75208   -0.121682   1.459937 H        1 UNL1     0.0348
     72 H         3.043748   1.942966   1.430521 H        1 UNL1     0.0602
     73 H         0.093538   5.382903   -0.7591 H        1 UNL1     0.0628
     74 H         0.623656   5.689498   2.255133 H        1 UNL1     0.1022
     75 H         11.300254   4.003294   -2.328631 H        1 UNL1     0.0279
     76 H         10.476539   3.852468   -3.829312 H        1 UNL1     0.0279
     77 H         11.307995   5.385039   -3.344333 H        1 UNL1     0.0279
     78 H         8.738314   5.662579   -4.686054 H        1 UNL1     0.1553
     79 H         7.64266   4.051946   -4.323248 H        1 UNL1     0.1484
     80 H         4.029372   2.931913   -4.682643 H        1 UNL1     0.0317
     81 H         4.588948   4.516557   -5.198105 H        1 UNL1     0.0317
     82 H         6.723279   3.539278   -6.083124 H        1 UNL1     0.0428
     83 H         5.300087   2.817088   -6.800527 H        1 UNL1     0.0428
     84 H         7.185301   0.618681   -3.683459 H        1 UNL1     0.0428
     85 H         7.92927   2.115043   -4.126779 H        1 UNL1     0.0428
     86 H         6.474746   2.132278   -2.099734 H        1 UNL1     0.0317
     87 H         5.08869   1.656352   -2.968466 H        1 UNL1     0.0317
     88 H         7.665933   1.398262   -6.891713 H        1 UNL1     0.0429
     89 H         7.43524   -0.071685   -5.941833 H        1 UNL1     0.0429
     90 H         5.876684   1.025016   -8.267985 H        1 UNL1     0.0308
     91 H         5.519022   -1.377879   -8.75721 H        1 UNL1     0.0233
     92 H         7.233421   -1.115141   -8.348189 H        1 UNL1     0.0233
     93 H         6.151735   -1.851028   -7.184993 H        1 UNL1     0.0233
     94 H         3.820675   -0.32224   -7.361781 H        1 UNL1     0.0233
     95 H         4.508884   0.08576   -5.782467 H        1 UNL1     0.0233
     96 H         4.053962   1.380212   -6.914471 H        1 UNL1     0.0233
     97 H         2.502672   11.032322   -1.437665 H        1 UNL1     0.0280
     98 H         3.628572   11.291041   -0.132828 H        1 UNL1     0.0280
     99 H         4.042375   11.841218   -1.783828 H        1 UNL1     0.0280
     100 H         6.915581   10.574573   -2.779131 H        1 UNL1     0.2922
     101 H         4.614961   2.802035   2.86439 H        1 UNL1     0.0236
     102 H         6.259703   2.185851   2.438713 H        1 UNL1     0.0236
     103 H         4.890439   1.121516   2.527056 H        1 UNL1     0.0236
     104 H         4.352004   0.102889   1.579029 H        1 UNL1     0.2098
     105 H         0.67014   1.262894   -0.983259 H        1 UNL1     0.0234
     106 H         1.407852   -0.359586   -0.863107 H        1 UNL1     0.0234
     107 H         0.0   -0.0   0.0 H        1 UNL1     0.0234
     108 H         1.830523   2.917713   2.218267 H        1 UNL1     0.2098
     109 H         -0.300153   3.834286   -2.168299 H        1 UNL1     0.0234
     110 H         0.754772   2.992087   -0.989046 H        1 UNL1     0.0234
     111 H         -0.301022   2.089449   -2.018311 H        1 UNL1     0.0234
     112 H         -5.488265   -0.178881   -0.447267 H        1 UNL1     0.0342
     113 H         -4.807558   1.45925   -0.144941 H        1 UNL1     0.0342
     114 H         -4.612583   0.687964   -1.721352 H        1 UNL1     0.0342
     115 H         -2.0796   1.487457   3.908211 H        1 UNL1     0.0234
     116 H         -1.80192   3.115246   3.280528 H        1 UNL1     0.0234
     117 H         -3.171183   2.110327   2.761968 H        1 UNL1     0.0234
     118 H         -0.059945   7.154571   -1.18943 H        1 UNL1     0.0309
     119 H         1.067811   8.157172   -2.154323 H        1 UNL1     0.0309
     120 H         1.104791   6.408934   -2.221043 H        1 UNL1     0.0309
     121 H         -2.660467   5.095647   3.357593 H        1 UNL1     0.0524
     122 H         -3.107141   5.716857   1.763405 H        1 UNL1     0.0524
     123 H         -3.553209   4.052926   2.217385 H        1 UNL1     0.0524
@<TRIPOS>BOND
     1     1     2    1
     2     1    42    1
     3     2     3    2
     4     3     4    1
     5     4     5    2
     6     5     7    1
     7     6    75    1
     8     6    76    1
     9     6    77    1
    10     7     9   am
    11     9    10    1
    12    10    11    2
    13    10    43    1
    14    11    14    1
    15    11    15    1
    16    12    13   ar
    17    12    27   ar
    18    12    43    1
    19    13    14    1
    20    13    30   ar
    21    14    17    2
    22    15    16    1
    23    16    17    1
    24    16    18    1
    25    16    22    1
    26    18    19    1
    27    19    20    1
    28    20    21    1
    29    21    22    1
    30    23    24    1
    31    23    88    1
    32    23    89    1
    33    24    25    1
    34    24    26    1
    35    24    90    1
    36    25    91    1
    37    25    92    1
    38    25    93    1
    39    26    94    1
    40    26    95    1
    41    26    96    1
    42    27    28   ar
    43    28    29   ar
    44    29    30   ar
    45    29    31    1
    46    30    33    1
    47    31    32    1
    48    32    33    1
    49    32    35    1
    50    34    97    1
    51    34    98    1
    52    34    99    1
    53    35    61    1
    54    36    37    1
    55    36    60    1
    56    37    38    1
    57    38    39    1
    58    39    40    1
    59    40    41    1
    60    41    42    1
    61    45   100    1
    62    47   101    1
    63    47   102    1
    64    47   103    1
    65    48   104    1
    66    49   105    1
    67    49   106    1
    68    49   107    1
    69    50   108    1
    70    51    59    1
    71    52   109    1
    72    52   110    1
    73    52   111    1
    74    53    54    1
    75    54    55    2
    76    54    56    1
    77    56   112    1
    78    56   113    1
    79    56   114    1
    80    57   115    1
    81    57   116    1
    82    57   117    1
    83    58   118    1
    84    58   119    1
    85    58   120    1
    86    59   121    1
    87    59   122    1
    88    59   123    1
    89    60    61    2
    90     1    47    1
    91     1    62    1
    92     2    63    1
    93     3    64    1
    94     4    65    1
    95     5     6    1
    96     7     8    2
    97     9    78    1
    98    15    79    1
    99    18    80    1
   100    18    81    1
   101    19    82    1
   102    19    83    1
   103    20    23    1
   104    21    84    1
   105    21    85    1
   106    22    86    1
   107    22    87    1
   108    27    45    1
   109    28    34    1
   110    32    58    1
   111    33    46    2
   112    36    51    1
   113    36    66    1
   114    37    52    1
   115    37    67    1
   116    38    53    1
   117    38    68    1
   118    42    48    1
   119    42    72    1
   120    43    44    2
   121    60    73    1
   122    61    74    1
   123    39    69    1
   124    39    57    1
   125    40    70    1
   126    40    50    1
   127    41    71    1
   128    41    49    1
