@<TRIPOS>MOLECULE
*****
 123 128 0 0 0
SMALL
GASTEIGER

@<TRIPOS>ATOM
     1 C         5.168615   1.742137   0.499655 C.3        1 UNL1     0.0009
     2 C         6.607716   2.546386   -0.348405 C.2        1 UNL1     -0.0787
     3 C         7.890544   2.446542   -1.012054 C.2        1 UNL1     -0.0649
     4 C         8.770806   3.680528   -1.766226 C.2        1 UNL1     -0.0542
     5 C         9.792728   3.97185   -2.703181 C.2        1 UNL1     0.0115
     6 C         10.921521   3.344945   -3.566975 C.3        1 UNL1     -0.0348
     7 C         9.890961   5.454977   -3.309542 C.2        1 UNL1     0.2441
     8 O         10.715289   6.275565   -2.93054 O.2        1 UNL1     -0.2702
     9 N         9.142904   5.662899   -4.481434 N.am        1 UNL1     -0.2772
     10 C         7.860182   6.051236   -4.169761 C.2        1 UNL1     0.1049
     11 C         7.012673   5.080916   -3.879191 C.2        1 UNL1     0.0801
     12 C         6.561577   7.659572   -2.761141 C.ar        1 UNL1     0.0753
     13 C         5.800342   6.53264   -2.314874 C.ar        1 UNL1     0.0305
     14 C         5.916636   5.226784   -2.96006 C.2        1 UNL1     0.0924
     15 N         7.133838   3.75178   -4.038071 N.pl3        1 UNL1     -0.3170
     16 C         5.8627   3.15425   -3.725949 C.3        1 UNL1     0.1275
     17 N         5.225945   4.110313   -2.747067 N.2        1 UNL1     -0.2557
     18 C         5.011977   3.214407   -4.991 C.3        1 UNL1     0.0016
     19 C         5.767804   2.529331   -6.11838 C.3        1 UNL1     0.0026
     20 N         6.035544   1.150886   -5.732073 N.3        1 UNL1     -0.3018
     21 C         6.796685   0.989521   -4.491511 C.3        1 UNL1     0.0026
     22 C         6.017015   1.681055   -3.371784 C.3        1 UNL1     0.0016
     23 C         6.480792   0.330765   -6.841037 C.3        1 UNL1     0.0012
     24 C         5.326618   0.082769   -7.824977 C.3        1 UNL1     -0.0339
     25 C         5.355353   1.085901   -8.989862 C.3        1 UNL1     -0.0615
     26 C         5.364969   -1.351992   -8.321736 C.3        1 UNL1     -0.0615
     27 C         6.357677   8.927535   -2.221868 C.ar        1 UNL1     0.1347
     28 C         5.397413   9.198329   -1.263425 C.ar        1 UNL1     0.0342
     29 C         4.693645   8.06479   -0.804118 C.ar        1 UNL1     0.1435
     30 C         4.912254   6.782475   -1.309192 C.ar        1 UNL1     0.0774
     31 O         3.651421   8.179708   0.047685 O.3        1 UNL1     -0.4436
     32 C         2.928386   6.947818   -0.095629 C.3        1 UNL1     0.3143
     33 C         3.941262   5.9534   -0.626128 C.2        1 UNL1     0.2504
     34 C         4.951624   10.565014   -0.823487 C.3        1 UNL1     -0.0327
     35 O         2.56506   6.511602   1.220032 O.2        1 UNL1     -0.4528
     36 C         -0.679829   4.583591   0.818086 C.3        1 UNL1     0.0854
     37 C         -0.98531   3.323388   -0.079739 C.3        1 UNL1     0.0236
     38 C         -1.588762   2.063132   0.707246 C.3        1 UNL1     0.1131
     39 C         -0.865789   1.531284   2.009828 C.3        1 UNL1     0.0200
     40 C         0.795146   1.383599   2.053677 C.3        1 UNL1     0.0661
     41 C         1.755406   0.613511   0.886426 C.3        1 UNL1     0.0091
     42 C         3.464367   0.973856   0.32517 C.3        1 UNL1     0.0661
     43 C         7.513156   7.450625   -3.880559 C.2        1 UNL1     0.2131
     44 O         7.915355   8.348172   -4.59846 O.2        1 UNL1     -0.2851
     45 O         7.172016   9.961585   -2.679067 O.3        1 UNL1     -0.5056
     46 O         3.955488   4.749849   -0.495303 O.2        1 UNL1     -0.2836
     47 C         5.562105   1.312179   1.938503 C.3        1 UNL1     -0.0566
     48 O         3.910977   -0.437825   0.407705 O.3        1 UNL1     -0.3909
     49 C         0.922918   0.38197   -0.354882 C.3        1 UNL1     -0.0577
     50 O         1.396282   2.600694   2.447424 O.3        1 UNL1     -0.3910
     51 O         -0.806402   4.394109   2.209311 O.3        1 UNL1     -0.3753
     52 C         0.060791   3.161542   -1.230577 C.3        1 UNL1     -0.0564
     53 O         -2.191256   1.024905   -0.193538 O.3        1 UNL1     -0.4608
     54 C         -2.415793   -0.284789   0.141445 C.2        1 UNL1     0.3042
     55 O         -1.844186   -1.278525   -0.305312 O.2        1 UNL1     -0.2512
     56 C         -3.447134   -0.461543   1.219317 C.3        1 UNL1     0.0332
     57 C         -1.587981   2.20124   3.269897 C.3        1 UNL1     -0.0567
     58 C         1.855253   7.194269   -1.181528 C.3        1 UNL1     0.0210
     59 C         -1.15019   5.56721   2.945185 C.3        1 UNL1     0.0372
     60 C         0.650348   5.210953   0.589592 C.2        1 UNL1     -0.0208
     61 C         1.562446   5.645029   1.460454 C.2        1 UNL1     0.0882
     62 H         4.693827   2.726926   0.586133 H        1 UNL1     0.0365
     63 H         6.342662   3.600531   -0.243556 H        1 UNL1     0.0576
     64 H         8.347303   1.479096   -1.232341 H        1 UNL1     0.0615
     65 H         8.28435   4.596562   -1.420214 H        1 UNL1     0.0622
     66 H         -1.423014   5.331072   0.506648 H        1 UNL1     0.0645
     67 H         -1.849475   3.633854   -0.692429 H        1 UNL1     0.0362
     68 H         -2.53583   2.501242   1.057452 H        1 UNL1     0.0741
     69 H         -1.198932   0.520622   2.204725 H        1 UNL1     0.0359
     70 H         0.904653   0.72315   2.935083 H        1 UNL1     0.0600
     71 H         1.796984   -0.407697   1.313465 H        1 UNL1     0.0348
     72 H         3.357545   1.462227   1.304658 H        1 UNL1     0.0602
     73 H         0.77016   5.408018   -0.446776 H        1 UNL1     0.0628
     74 H         1.542912   5.434421   2.530267 H        1 UNL1     0.1022
     75 H         10.964327   2.239614   -3.413855 H        1 UNL1     0.0279
     76 H         10.809724   3.427847   -4.645723 H        1 UNL1     0.0279
     77 H         11.926464   3.648359   -3.238753 H        1 UNL1     0.0279
     78 H         9.080619   4.793015   -5.006314 H        1 UNL1     0.1553
     79 H         7.799543   3.322909   -4.654383 H        1 UNL1     0.1484
     80 H         4.049752   2.724723   -4.79839 H        1 UNL1     0.0317
     81 H         4.787145   4.251443   -5.262397 H        1 UNL1     0.0317
     82 H         6.699549   3.059421   -6.364892 H        1 UNL1     0.0428
     83 H         5.144153   2.585254   -7.011119 H        1 UNL1     0.0428
     84 H         6.91516   -0.053575   -4.182117 H        1 UNL1     0.0428
     85 H         7.827417   1.356217   -4.593691 H        1 UNL1     0.0428
     86 H         6.531658   1.430055   -2.462868 H        1 UNL1     0.0317
     87 H         5.036754   1.20469   -3.248247 H        1 UNL1     0.0317
     88 H         7.278398   0.871514   -7.367068 H        1 UNL1     0.0429
     89 H         6.9116   -0.615554   -6.489387 H        1 UNL1     0.0429
     90 H         4.373045   0.190728   -7.294641 H        1 UNL1     0.0308
     91 H         6.305081   1.039748   -9.531146 H        1 UNL1     0.0233
     92 H         4.535938   0.892837   -9.686205 H        1 UNL1     0.0233
     93 H         5.231799   2.121946   -8.651956 H        1 UNL1     0.0233
     94 H         4.669861   -1.4807   -9.158453 H        1 UNL1     0.0233
     95 H         6.369594   -1.597579   -8.677231 H        1 UNL1     0.0233
     96 H         5.088422   -2.055446   -7.531392 H        1 UNL1     0.0233
     97 H         4.157037   10.516288   -0.084915 H        1 UNL1     0.0280
     98 H         5.76436   11.134023   -0.35344 H        1 UNL1     0.0280
     99 H         4.580068   11.129997   -1.694025 H        1 UNL1     0.0280
     100 H         6.706468   10.712525   -3.00307 H        1 UNL1     0.2922
     101 H         4.697925   0.879674   2.442277 H        1 UNL1     0.0236
     102 H         6.012999   2.116963   2.518159 H        1 UNL1     0.0236
     103 H         6.317318   0.508533   1.938643 H        1 UNL1     0.0236
     104 H         4.330215   -0.563953   1.281377 H        1 UNL1     0.2098
     105 H         0.712349   1.281053   -0.928574 H        1 UNL1     0.0234
     106 H         1.292337   -0.406554   -1.010386 H        1 UNL1     0.0234
     107 H         0.0   -0.0   0.0 H        1 UNL1     0.0234
     108 H         1.197298   3.25991   1.754886 H        1 UNL1     0.2098
     109 H         1.084869   3.046759   -0.848739 H        1 UNL1     0.0234
     110 H         -0.171632   2.334715   -1.910342 H        1 UNL1     0.0234
     111 H         0.084166   4.044301   -1.883368 H        1 UNL1     0.0234
     112 H         -3.574214   -1.525323   1.441957 H        1 UNL1     0.0342
     113 H         -3.199125   0.099088   2.119333 H        1 UNL1     0.0342
     114 H         -4.405945   -0.0794   0.842737 H        1 UNL1     0.0342
     115 H         -2.65257   1.934188   3.320121 H        1 UNL1     0.0234
     116 H         -1.13831   1.940153   4.229938 H        1 UNL1     0.0234
     117 H         -1.646933   3.301609   3.209454 H        1 UNL1     0.0234
     118 H         0.95415   7.682354   -0.770684 H        1 UNL1     0.0309
     119 H         2.226733   7.78174   -2.027154 H        1 UNL1     0.0309
     120 H         1.466161   6.262794   -1.607048 H        1 UNL1     0.0309
     121 H         -0.344811   6.288723   2.810499 H        1 UNL1     0.0524
     122 H         -2.079163   6.034243   2.57786 H        1 UNL1     0.0524
     123 H         -1.267866   5.329109   3.998538 H        1 UNL1     0.0524
@<TRIPOS>BOND
     1     1     2    1
     2     1    42    1
     3     2     3    2
     4     3     4    1
     5     4     5    2
     6     5     7    1
     7     6    75    1
     8     6    76    1
     9     6    77    1
    10     7     9   am
    11     9    10    1
    12    10    11    2
    13    10    43    1
    14    11    14    1
    15    11    15    1
    16    12    13   ar
    17    12    27   ar
    18    12    43    1
    19    13    14    1
    20    13    30   ar
    21    14    17    2
    22    15    16    1
    23    16    17    1
    24    16    18    1
    25    16    22    1
    26    18    19    1
    27    19    20    1
    28    20    21    1
    29    21    22    1
    30    23    24    1
    31    23    88    1
    32    23    89    1
    33    24    25    1
    34    24    26    1
    35    24    90    1
    36    25    91    1
    37    25    92    1
    38    25    93    1
    39    26    94    1
    40    26    95    1
    41    26    96    1
    42    27    28   ar
    43    28    29   ar
    44    29    30   ar
    45    29    31    1
    46    30    33    1
    47    31    32    1
    48    32    33    1
    49    32    35    1
    50    34    97    1
    51    34    98    1
    52    34    99    1
    53    35    61    1
    54    36    37    1
    55    36    60    1
    56    37    38    1
    57    38    39    1
    58    39    40    1
    59    40    41    1
    60    41    42    1
    61    45   100    1
    62    47   101    1
    63    47   102    1
    64    47   103    1
    65    48   104    1
    66    49   105    1
    67    49   106    1
    68    49   107    1
    69    50   108    1
    70    51    59    1
    71    52   109    1
    72    52   110    1
    73    52   111    1
    74    53    54    1
    75    54    55    2
    76    54    56    1
    77    56   112    1
    78    56   113    1
    79    56   114    1
    80    57   115    1
    81    57   116    1
    82    57   117    1
    83    58   118    1
    84    58   119    1
    85    58   120    1
    86    59   121    1
    87    59   122    1
    88    59   123    1
    89    60    61    2
    90     1    47    1
    91     1    62    1
    92     2    63    1
    93     3    64    1
    94     4    65    1
    95     5     6    1
    96     7     8    2
    97     9    78    1
    98    15    79    1
    99    18    80    1
   100    18    81    1
   101    19    82    1
   102    19    83    1
   103    20    23    1
   104    21    84    1
   105    21    85    1
   106    22    86    1
   107    22    87    1
   108    27    45    1
   109    28    34    1
   110    32    58    1
   111    33    46    2
   112    36    51    1
   113    36    66    1
   114    37    52    1
   115    37    67    1
   116    38    53    1
   117    38    68    1
   118    42    48    1
   119    42    72    1
   120    43    44    2
   121    60    73    1
   122    61    74    1
   123    39    69    1
   124    39    57    1
   125    40    70    1
   126    40    50    1
   127    41    71    1
   128    41    49    1
