@<TRIPOS>MOLECULE
*****
 123 128 0 0 0
SMALL
GASTEIGER

@<TRIPOS>ATOM
     1 C         4.971939   2.238844   0.52835 C.3        1 UNL1     0.0009
     2 C         6.359074   3.11583   -0.334082 C.2        1 UNL1     -0.0787
     3 C         7.671294   3.094413   -0.945365 C.2        1 UNL1     -0.0649
     4 C         8.457104   4.348933   -1.766973 C.2        1 UNL1     -0.0542
     5 C         9.482864   4.668496   -2.690431 C.2        1 UNL1     0.0115
     6 C         10.701259   4.093467   -3.463851 C.3        1 UNL1     -0.0348
     7 C         9.460789   6.103176   -3.410289 C.2        1 UNL1     0.2441
     8 O         10.185401   7.028801   -3.071642 O.2        1 UNL1     -0.2702
     9 N         8.744021   6.144755   -4.618869 N.am        1 UNL1     -0.2772
     10 C         7.418067   6.425409   -4.38138 C.2        1 UNL1     0.1049
     11 C         6.657913   5.400219   -4.041715 C.2        1 UNL1     0.0801
     12 C         5.913328   7.998767   -3.149455 C.ar        1 UNL1     0.0753
     13 C         5.247911   6.838781   -2.639299 C.ar        1 UNL1     0.0305
     14 C         5.516647   5.505568   -3.173506 C.2        1 UNL1     0.0924
     15 N         6.914107   4.081652   -4.089416 N.pl3        1 UNL1     -0.3170
     16 C         5.695549   3.385503   -3.772011 C.3        1 UNL1     0.1275
     17 N         4.929788   4.345154   -2.894285 N.2        1 UNL1     -0.2557
     18 C         4.894823   3.263078   -5.064896 C.3        1 UNL1     0.0016
     19 C         5.758634   2.5728   -6.108417 C.3        1 UNL1     0.0026
     20 N         6.143356   1.261761   -5.604241 N.3        1 UNL1     -0.3018
     21 C         6.865832   1.272938   -4.330557 C.3        1 UNL1     0.0026
     22 C         5.977991   1.966649   -3.295956 C.3        1 UNL1     0.0016
     23 C         6.710707   0.407824   -6.628715 C.3        1 UNL1     0.0012
     24 C         5.626833   -0.02915   -7.626727 C.3        1 UNL1     -0.0339
     25 C         5.885095   -1.451519   -8.150391 C.3        1 UNL1     -0.0615
     26 C         4.253341   0.091193   -6.989689 C.3        1 UNL1     -0.0615
     27 C         5.56544   9.277501   -2.720583 C.ar        1 UNL1     0.1347
     28 C         4.545451   9.52339   -1.8188 C.ar        1 UNL1     0.0342
     29 C         3.937296   8.363602   -1.293248 C.ar        1 UNL1     0.1435
     30 C         4.299826   7.074722   -1.686419 C.ar        1 UNL1     0.0774
     31 O         2.855274   8.438481   -0.487875 O.3        1 UNL1     -0.4436
     32 C         2.261875   7.133035   -0.555419 C.3        1 UNL1     0.3143
     33 C         3.387278   6.207349   -0.971096 C.2        1 UNL1     0.2504
     34 C         3.951429   10.868225   -1.504703 C.3        1 UNL1     -0.0327
     35 O         1.88984   6.764698   0.778437 O.2        1 UNL1     -0.4528
     36 C         -1.133224   4.496326   0.426785 C.3        1 UNL1     0.0854
     37 C         -1.27815   3.14681   -0.376538 C.3        1 UNL1     0.0236
     38 C         -1.787461   1.896465   0.4889 C.3        1 UNL1     0.1131
     39 C         -1.06941   1.541045   1.852847 C.3        1 UNL1     0.0200
     40 C         0.59488   1.564231   1.962579 C.3        1 UNL1     0.0661
     41 C         1.671868   0.807039   0.892829 C.3        1 UNL1     0.0091
     42 C         3.358951   1.292657   0.360541 C.3        1 UNL1     0.0661
     43 C         6.92517   7.801032   -4.216852 C.2        1 UNL1     0.2131
     44 O         7.266836   8.676701   -4.990935 O.2        1 UNL1     -0.2851
     45 O         6.293142   10.349828   -3.232444 O.3        1 UNL1     -0.5056
     46 O         3.513206   5.024849   -0.743746 O.2        1 UNL1     -0.2836
     47 C         5.346924   1.961944   2.009125 C.3        1 UNL1     -0.0566
     48 O         3.937054   -0.05671   0.57059 O.3        1 UNL1     -0.3909
     49 C         0.916688   0.398888   -0.352406 C.3        1 UNL1     -0.0577
     50 O         1.058377   2.861977   2.276823 O.3        1 UNL1     -0.3910
     51 O         -1.296876   4.402252   1.823853 O.3        1 UNL1     -0.3753
     52 C         -0.175625   3.00286   -1.475931 C.3        1 UNL1     -0.0564
     53 O         -2.24922   0.737184   -0.34487 O.3        1 UNL1     -0.4608
     54 C         -1.439036   -0.078438   -1.09072 C.2        1 UNL1     0.3042
     55 O         -1.273854   -0.054486   -2.309728 O.2        1 UNL1     -0.2512
     56 C         -0.64712   -1.054544   -0.268041 C.3        1 UNL1     0.0332
     57 C         -1.903664   2.229856   3.030868 C.3        1 UNL1     -0.0567
     58 C         1.214617   7.186868   -1.692028 C.3        1 UNL1     0.0210
     59 C         -0.265637   3.685614   2.501232 C.3        1 UNL1     0.0372
     60 C         0.137764   5.234387   0.192227 C.2        1 UNL1     -0.0208
     61 C         0.967378   5.823052   1.054757 C.2        1 UNL1     0.0882
     62 H         4.400509   3.174851   0.520007 H        1 UNL1     0.0365
     63 H         5.988722   4.143051   -0.322843 H        1 UNL1     0.0576
     64 H         8.228515   2.163554   -1.072308 H        1 UNL1     0.0615
     65 H         7.870272   5.235447   -1.511623 H        1 UNL1     0.0622
     66 H         -1.932398   5.139558   0.0323 H        1 UNL1     0.0645
     67 H         -2.142951   3.321324   -1.040032 H        1 UNL1     0.0362
     68 H         -2.786026   2.263062   0.771738 H        1 UNL1     0.0741
     69 H         -1.310268   0.520015   2.117219 H        1 UNL1     0.0359
     70 H         0.732405   0.987538   2.89723 H        1 UNL1     0.0600
     71 H         1.795291   -0.169143   1.401545 H        1 UNL1     0.0348
     72 H         3.165643   1.841465   1.293684 H        1 UNL1     0.0602
     73 H         0.279617   5.362489   -0.852146 H        1 UNL1     0.0628
     74 H         0.925212   5.694119   2.136809 H        1 UNL1     0.1022
     75 H         11.362259   3.511484   -2.77726 H        1 UNL1     0.0279
     76 H         10.481894   3.370593   -4.246411 H        1 UNL1     0.0279
     77 H         11.389437   4.875969   -3.815707 H        1 UNL1     0.0279
     78 H         8.787903   5.235367   -5.074024 H        1 UNL1     0.1553
     79 H         7.642727   3.675659   -4.647283 H        1 UNL1     0.1484
     80 H         3.977798   2.695695   -4.865126 H        1 UNL1     0.0317
     81 H         4.581336   4.248533   -5.425805 H        1 UNL1     0.0317
     82 H         6.643597   3.173085   -6.366123 H        1 UNL1     0.0428
     83 H         5.169085   2.497435   -7.022639 H        1 UNL1     0.0428
     84 H         7.072607   0.273731   -3.934778 H        1 UNL1     0.0428
     85 H         7.859292   1.732103   -4.428135 H        1 UNL1     0.0428
     86 H         6.477461   1.838816   -2.353525 H        1 UNL1     0.0317
     87 H         5.044526   1.405381   -3.166657 H        1 UNL1     0.0317
     88 H         7.472534   0.983837   -7.170123 H        1 UNL1     0.0429
     89 H         7.216958   -0.460863   -6.188412 H        1 UNL1     0.0429
     90 H         5.623484   0.661287   -8.478489 H        1 UNL1     0.0308
     91 H         6.136466   -2.136101   -7.334754 H        1 UNL1     0.0233
     92 H         5.009651   -1.832528   -8.681464 H        1 UNL1     0.0233
     93 H         6.716398   -1.489005   -8.86479 H        1 UNL1     0.0233
     94 H         3.538025   -0.555469   -7.509291 H        1 UNL1     0.0233
     95 H         4.297268   -0.226461   -5.944161 H        1 UNL1     0.0233
     96 H         3.883016   1.119358   -7.030972 H        1 UNL1     0.0233
     97 H         4.491666   11.675658   -1.989911 H        1 UNL1     0.0280
     98 H         2.912388   10.952313   -1.849054 H        1 UNL1     0.0280
     99 H         3.979494   11.038904   -0.416045 H        1 UNL1     0.0280
     100 H         7.227383   10.245215   -3.18919 H        1 UNL1     0.2922
     101 H         4.818119   2.659006   2.658837 H        1 UNL1     0.0236
     102 H         6.421579   1.971003   2.188062 H        1 UNL1     0.0236
     103 H         5.015249   0.963803   2.340635 H        1 UNL1     0.0236
     104 H         4.088299   -0.4531   -0.309734 H        1 UNL1     0.2098
     105 H         0.685096   1.219738   -1.026485 H        1 UNL1     0.0234
     106 H         1.361914   -0.428914   -0.904172 H        1 UNL1     0.0234
     107 H         0.0   -0.0   0.0 H        1 UNL1     0.0234
     108 H         2.019761   2.876023   2.105618 H        1 UNL1     0.2098
     109 H         0.834895   2.95004   -1.047245 H        1 UNL1     0.0234
     110 H         -0.337818   2.145876   -2.138514 H        1 UNL1     0.0234
     111 H         -0.165795   3.866048   -2.154722 H        1 UNL1     0.0234
     112 H         -0.008357   -1.658352   -0.919765 H        1 UNL1     0.0342
     113 H         -0.060247   -0.558424   0.503508 H        1 UNL1     0.0342
     114 H         -1.352084   -1.731603   0.233737 H        1 UNL1     0.0342
     115 H         -1.880966   1.63087   3.951677 H        1 UNL1     0.0234
     116 H         -1.564771   3.236079   3.28526 H        1 UNL1     0.0234
     117 H         -2.988444   2.275667   2.833141 H        1 UNL1     0.0234
     118 H         1.366176   8.056976   -2.354559 H        1 UNL1     0.0309
     119 H         1.190699   6.275394   -2.297706 H        1 UNL1     0.0309
     120 H         0.194928   7.329039   -1.317691 H        1 UNL1     0.0309
     121 H         -0.691818   3.28487   3.420542 H        1 UNL1     0.0524
     122 H         0.109344   2.833531   1.910149 H        1 UNL1     0.0524
     123 H         0.564216   4.348108   2.730447 H        1 UNL1     0.0524
@<TRIPOS>BOND
     1     1     2    1
     2     1    42    1
     3     2     3    2
     4     3     4    1
     5     4     5    2
     6     5     7    1
     7     6    75    1
     8     6    76    1
     9     6    77    1
    10     7     9   am
    11     9    10    1
    12    10    11    2
    13    10    43    1
    14    11    14    1
    15    11    15    1
    16    12    13   ar
    17    12    27   ar
    18    12    43    1
    19    13    14    1
    20    13    30   ar
    21    14    17    2
    22    15    16    1
    23    16    17    1
    24    16    18    1
    25    16    22    1
    26    18    19    1
    27    19    20    1
    28    20    21    1
    29    21    22    1
    30    23    24    1
    31    23    88    1
    32    23    89    1
    33    24    25    1
    34    24    26    1
    35    24    90    1
    36    25    91    1
    37    25    92    1
    38    25    93    1
    39    26    94    1
    40    26    95    1
    41    26    96    1
    42    27    28   ar
    43    28    29   ar
    44    29    30   ar
    45    29    31    1
    46    30    33    1
    47    31    32    1
    48    32    33    1
    49    32    35    1
    50    34    97    1
    51    34    98    1
    52    34    99    1
    53    35    61    1
    54    36    37    1
    55    36    60    1
    56    37    38    1
    57    38    39    1
    58    39    40    1
    59    40    41    1
    60    41    42    1
    61    45   100    1
    62    47   101    1
    63    47   102    1
    64    47   103    1
    65    48   104    1
    66    49   105    1
    67    49   106    1
    68    49   107    1
    69    50   108    1
    70    51    59    1
    71    52   109    1
    72    52   110    1
    73    52   111    1
    74    53    54    1
    75    54    55    2
    76    54    56    1
    77    56   112    1
    78    56   113    1
    79    56   114    1
    80    57   115    1
    81    57   116    1
    82    57   117    1
    83    58   118    1
    84    58   119    1
    85    58   120    1
    86    59   121    1
    87    59   122    1
    88    59   123    1
    89    60    61    2
    90     1    47    1
    91     1    62    1
    92     2    63    1
    93     3    64    1
    94     4    65    1
    95     5     6    1
    96     7     8    2
    97     9    78    1
    98    15    79    1
    99    18    80    1
   100    18    81    1
   101    19    82    1
   102    19    83    1
   103    20    23    1
   104    21    84    1
   105    21    85    1
   106    22    86    1
   107    22    87    1
   108    27    45    1
   109    28    34    1
   110    32    58    1
   111    33    46    2
   112    36    51    1
   113    36    66    1
   114    37    52    1
   115    37    67    1
   116    38    53    1
   117    38    68    1
   118    42    48    1
   119    42    72    1
   120    43    44    2
   121    60    73    1
   122    61    74    1
   123    39    69    1
   124    39    57    1
   125    40    70    1
   126    40    50    1
   127    41    71    1
   128    41    49    1
