@<TRIPOS>MOLECULE
*****
 123 128 0 0 0
SMALL
GASTEIGER

@<TRIPOS>ATOM
     1 C         5.036637   2.056375   0.644485 C.3        1 UNL1     0.0009
     2 C         6.422479   2.997884   -0.149265 C.2        1 UNL1     -0.0787
     3 C         7.71795   3.019708   -0.795272 C.2        1 UNL1     -0.0649
     4 C         8.513044   4.344139   -1.488141 C.2        1 UNL1     -0.0542
     5 C         9.522643   4.74687   -2.396763 C.2        1 UNL1     0.0115
     6 C         10.7068   4.239756   -3.265056 C.3        1 UNL1     -0.0348
     7 C         9.517294   6.25554   -2.945285 C.2        1 UNL1     0.2441
     8 O         10.272504   7.120022   -2.522374 O.2        1 UNL1     -0.2702
     9 N         8.771484   6.452298   -4.120532 N.am        1 UNL1     -0.2772
     10 C         7.459158   6.731572   -3.815363 C.2        1 UNL1     0.1049
     11 C         6.683121   5.690254   -3.575267 C.2        1 UNL1     0.0801
     12 C         6.024668   8.18291   -2.368578 C.ar        1 UNL1     0.0753
     13 C         5.344334   6.985941   -1.977399 C.ar        1 UNL1     0.0305
     14 C         5.56702   5.718332   -2.669228 C.2        1 UNL1     0.0924
     15 N         6.905903   4.380995   -3.781994 N.pl3        1 UNL1     -0.3170
     16 C         5.67918   3.678733   -3.513235 C.3        1 UNL1     0.1275
     17 N         4.95936   4.546072   -2.50959 N.2        1 UNL1     -0.2557
     18 C         4.84335   3.724197   -4.788784 C.3        1 UNL1     0.0016
     19 C         5.663525   3.141511   -5.928687 C.3        1 UNL1     0.0026
     20 N         6.028862   1.772952   -5.590155 N.3        1 UNL1     -0.3018
     21 C         6.783301   1.620905   -4.344334 C.3        1 UNL1     0.0026
     22 C         5.93897   2.208546   -3.212222 C.3        1 UNL1     0.0016
     23 C         6.549262   1.031829   -6.721776 C.3        1 UNL1     0.0012
     24 C         5.430252   0.73673   -7.732959 C.3        1 UNL1     -0.0339
     25 C         5.773372   1.285728   -9.127565 C.3        1 UNL1     -0.0615
     26 C         5.145244   -0.754538   -7.773836 C.3        1 UNL1     -0.0615
     27 C         5.718896   9.410325   -1.78542 C.ar        1 UNL1     0.1347
     28 C         4.728261   9.57149   -0.833202 C.ar        1 UNL1     0.0342
     29 C         4.105548   8.371717   -0.42831 C.ar        1 UNL1     0.1435
     30 C         4.426607   7.129773   -0.977597 C.ar        1 UNL1     0.0774
     31 O         3.046329   8.375572   0.410169 O.3        1 UNL1     -0.4436
     32 C         2.419859   7.099675   0.208937 C.3        1 UNL1     0.3143
     33 C         3.511582   6.20481   -0.342035 C.2        1 UNL1     0.2504
     34 C         4.175218   10.883089   -0.349516 C.3        1 UNL1     -0.0327
     35 O         2.072751   6.58701   1.501199 O.2        1 UNL1     -0.4528
     36 C         -1.012467   4.439446   0.974429 C.3        1 UNL1     0.0854
     37 C         -1.210375   3.195658   0.025037 C.3        1 UNL1     0.0236
     38 C         -1.727931   1.864418   0.754201 C.3        1 UNL1     0.1131
     39 C         -0.984548   1.337953   2.047448 C.3        1 UNL1     0.0200
     40 C         0.682052   1.312921   2.11269 C.3        1 UNL1     0.0661
     41 C         1.712985   0.662307   0.933076 C.3        1 UNL1     0.0091
     42 C         3.397406   1.170503   0.413592 C.3        1 UNL1     0.0661
     43 C         7.004152   8.088954   -3.479452 C.2        1 UNL1     0.2131
     44 O         7.347364   9.041091   -4.156489 O.2        1 UNL1     -0.2851
     45 O         6.459303   10.519122   -2.190149 O.3        1 UNL1     -0.5056
     46 O         3.614426   5.00151   -0.256317 O.2        1 UNL1     -0.2836
     47 C         5.442021   1.601604   2.072361 C.3        1 UNL1     -0.0566
     48 O         3.947655   -0.206086   0.450263 O.3        1 UNL1     -0.3909
     49 C         0.91693   0.417545   -0.329415 C.3        1 UNL1     -0.0577
     50 O         1.184738   2.555299   2.561609 O.3        1 UNL1     -0.3910
     51 O         -1.143058   4.187371   2.355312 O.3        1 UNL1     -0.3753
     52 C         -0.139763   3.156901   -1.113925 C.3        1 UNL1     -0.0564
     53 O         -2.238621   0.819793   -0.19463 O.3        1 UNL1     -0.4608
     54 C         -2.349086   -0.518181   0.080235 C.2        1 UNL1     0.3042
     55 O         -1.599971   -1.421122   -0.290392 O.2        1 UNL1     -0.2512
     56 C         -3.500771   -0.853246   0.984706 C.3        1 UNL1     0.0332
     57 C         -1.771826   1.902947   3.319906 C.3        1 UNL1     -0.0567
     58 C         1.345876   7.307263   -0.884223 C.3        1 UNL1     0.0210
     59 C         -1.553506   5.310693   3.13348 C.3        1 UNL1     0.0372
     60 C         0.269763   5.1726   0.79131 C.2        1 UNL1     -0.0208
     61 C         1.134938   5.639449   1.692569 C.2        1 UNL1     0.0882
     62 H         4.488099   2.998941   0.760186 H        1 UNL1     0.0365
     63 H         6.077607   4.024487   -0.009195 H        1 UNL1     0.0576
     64 H         8.249001   2.098257   -1.044311 H        1 UNL1     0.0615
     65 H         7.954563   5.207282   -1.115897 H        1 UNL1     0.0622
     66 H         -1.805468   5.140928   0.679271 H        1 UNL1     0.0645
     67 H         -2.087142   3.464305   -0.589509 H        1 UNL1     0.0362
     68 H         -2.709836   2.216823   1.105193 H        1 UNL1     0.0741
     69 H         -1.243408   0.298485   2.19879 H        1 UNL1     0.0359
     70 H         0.829056   0.62887   2.970317 H        1 UNL1     0.0600
     71 H         1.825438   -0.368714   1.322057 H        1 UNL1     0.0348
     72 H         3.2411   1.611288   1.408877 H        1 UNL1     0.0602
     73 H         0.388294   5.417998   -0.234838 H        1 UNL1     0.0628
     74 H         1.116964   5.386738   2.753253 H        1 UNL1     0.1022
     75 H         10.780887   3.126622   -3.215274 H        1 UNL1     0.0279
     76 H         10.636825   4.422257   -4.33504 H        1 UNL1     0.0279
     77 H         11.686432   4.540321   -2.865453 H        1 UNL1     0.0279
     78 H         8.781752   5.601151   -4.678673 H        1 UNL1     0.1553
     79 H         7.610133   4.027115   -4.403092 H        1 UNL1     0.1484
     80 H         3.918137   3.157055   -4.630368 H        1 UNL1     0.0317
     81 H         4.544904   4.751308   -5.024635 H        1 UNL1     0.0317
     82 H         6.556034   3.748729   -6.139936 H        1 UNL1     0.0428
     83 H         5.04944   3.18528   -6.828706 H        1 UNL1     0.0428
     84 H         6.975647   0.578357   -4.072473 H        1 UNL1     0.0428
     85 H         7.784851   2.067104   -4.415905 H        1 UNL1     0.0428
     86 H         6.458803   1.961635   -2.305141 H        1 UNL1     0.0317
     87 H         4.995697   1.656003   -3.122614 H        1 UNL1     0.0317
     88 H         7.310963   1.650483   -7.21409 H        1 UNL1     0.0429
     89 H         7.045195   0.107367   -6.398986 H        1 UNL1     0.0429
     90 H         4.502389   1.209715   -7.390079 H        1 UNL1     0.0308
     91 H         6.800002   1.036012   -9.411777 H        1 UNL1     0.0233
     92 H         5.08661   0.888618   -9.878744 H        1 UNL1     0.0233
     93 H         5.685498   2.377694   -9.179754 H        1 UNL1     0.0233
     94 H         4.661531   -1.020835   -8.719851 H        1 UNL1     0.0233
     95 H         6.081195   -1.315864   -7.704056 H        1 UNL1     0.0233
     96 H         4.489519   -1.058132   -6.952969 H        1 UNL1     0.0233
     97 H         3.323114   10.74765   0.309881 H        1 UNL1     0.0280
     98 H         4.913242   11.456029   0.226953 H        1 UNL1     0.0280
     99 H         3.851701   11.487902   -1.212437 H        1 UNL1     0.0280
     100 H         5.943189   11.27102   -2.422311 H        1 UNL1     0.2922
     101 H         4.548448   1.375215   2.65368 H        1 UNL1     0.0236
     102 H         6.091228   2.313611   2.580849 H        1 UNL1     0.0236
     103 H         6.014099   0.658861   2.059937 H        1 UNL1     0.0236
     104 H         4.275782   -0.368532   1.356306 H        1 UNL1     0.2098
     105 H         0.688426   1.315806   -0.897504 H        1 UNL1     0.0234
     106 H         1.32784   -0.349891   -0.985251 H        1 UNL1     0.0234
     107 H         0.0   -0.0   0.0 H        1 UNL1     0.0234
     108 H         1.004088   3.211501   1.861228 H        1 UNL1     0.2098
     109 H         0.885378   3.116569   -0.720006 H        1 UNL1     0.0234
     110 H         -0.293197   2.334594   -1.821041 H        1 UNL1     0.0234
     111 H         -0.182299   4.057966   -1.740199 H        1 UNL1     0.0234
     112 H         -3.519418   -1.929693   1.180305 H        1 UNL1     0.0342
     113 H         -3.469136   -0.28764   1.914724 H        1 UNL1     0.0342
     114 H         -4.43257   -0.589025   0.465954 H        1 UNL1     0.0342
     115 H         -2.845573   1.675442   3.269933 H        1 UNL1     0.0234
     116 H         -1.400452   1.526181   4.274986 H        1 UNL1     0.0234
     117 H         -1.789754   3.005158   3.372368 H        1 UNL1     0.0234
     118 H         0.32426   7.314907   -0.465594 H        1 UNL1     0.0309
     119 H         1.499723   8.219072   -1.470001 H        1 UNL1     0.0309
     120 H         1.31669   6.484132   -1.606518 H        1 UNL1     0.0309
     121 H         -1.187013   5.160192   4.148561 H        1 UNL1     0.0524
     122 H         -1.124125   6.256142   2.762272 H        1 UNL1     0.0524
     123 H         -2.6368   5.391739   3.134247 H        1 UNL1     0.0524
@<TRIPOS>BOND
     1     1     2    1
     2     1    42    1
     3     2     3    2
     4     3     4    1
     5     4     5    2
     6     5     7    1
     7     6    75    1
     8     6    76    1
     9     6    77    1
    10     7     9   am
    11     9    10    1
    12    10    11    2
    13    10    43    1
    14    11    14    1
    15    11    15    1
    16    12    13   ar
    17    12    27   ar
    18    12    43    1
    19    13    14    1
    20    13    30   ar
    21    14    17    2
    22    15    16    1
    23    16    17    1
    24    16    18    1
    25    16    22    1
    26    18    19    1
    27    19    20    1
    28    20    21    1
    29    21    22    1
    30    23    24    1
    31    23    88    1
    32    23    89    1
    33    24    25    1
    34    24    26    1
    35    24    90    1
    36    25    91    1
    37    25    92    1
    38    25    93    1
    39    26    94    1
    40    26    95    1
    41    26    96    1
    42    27    28   ar
    43    28    29   ar
    44    29    30   ar
    45    29    31    1
    46    30    33    1
    47    31    32    1
    48    32    33    1
    49    32    35    1
    50    34    97    1
    51    34    98    1
    52    34    99    1
    53    35    61    1
    54    36    37    1
    55    36    60    1
    56    37    38    1
    57    38    39    1
    58    39    40    1
    59    40    41    1
    60    41    42    1
    61    45   100    1
    62    47   101    1
    63    47   102    1
    64    47   103    1
    65    48   104    1
    66    49   105    1
    67    49   106    1
    68    49   107    1
    69    50   108    1
    70    51    59    1
    71    52   109    1
    72    52   110    1
    73    52   111    1
    74    53    54    1
    75    54    55    2
    76    54    56    1
    77    56   112    1
    78    56   113    1
    79    56   114    1
    80    57   115    1
    81    57   116    1
    82    57   117    1
    83    58   118    1
    84    58   119    1
    85    58   120    1
    86    59   121    1
    87    59   122    1
    88    59   123    1
    89    60    61    2
    90     1    47    1
    91     1    62    1
    92     2    63    1
    93     3    64    1
    94     4    65    1
    95     5     6    1
    96     7     8    2
    97     9    78    1
    98    15    79    1
    99    18    80    1
   100    18    81    1
   101    19    82    1
   102    19    83    1
   103    20    23    1
   104    21    84    1
   105    21    85    1
   106    22    86    1
   107    22    87    1
   108    27    45    1
   109    28    34    1
   110    32    58    1
   111    33    46    2
   112    36    51    1
   113    36    66    1
   114    37    52    1
   115    37    67    1
   116    38    53    1
   117    38    68    1
   118    42    48    1
   119    42    72    1
   120    43    44    2
   121    60    73    1
   122    61    74    1
   123    39    69    1
   124    39    57    1
   125    40    70    1
   126    40    50    1
   127    41    71    1
   128    41    49    1
