@<TRIPOS>MOLECULE
*****
 123 128 0 0 0
SMALL
GASTEIGER

@<TRIPOS>ATOM
     1 C         4.684949   2.688074   -0.91502 C.3        1 UNL1     0.0009
     2 C         6.464582   2.543169   -1.413965 C.2        1 UNL1     -0.0787
     3 C         7.86852   2.505078   -1.062463 C.2        1 UNL1     -0.0649
     4 C         9.187551   2.197256   -2.078219 C.2        1 UNL1     -0.0542
     5 C         10.54524   1.79574   -2.128666 C.2        1 UNL1     0.0115
     6 C         11.805707   1.515563   -1.264926 C.3        1 UNL1     -0.0348
     7 C         11.151023   1.278156   -3.522267 C.2        1 UNL1     0.2441
     8 O         11.864146   1.970154   -4.235793 O.2        1 UNL1     -0.2702
     9 N         11.024249   -0.104473   -3.74231 N.am        1 UNL1     -0.2772
     10 C         9.821226   -0.386014   -4.347943 C.2        1 UNL1     0.1049
     11 C         8.775392   -0.483862   -3.547393 C.2        1 UNL1     0.0801
     12 C         8.349312   0.301151   -6.250207 C.ar        1 UNL1     0.0753
     13 C         7.286103   0.382549   -5.295446 C.ar        1 UNL1     0.0305
     14 C         7.436121   -0.134918   -3.937221 C.2        1 UNL1     0.0924
     15 N         8.717987   -0.561187   -2.206777 N.pl3        1 UNL1     -0.3170
     16 C         7.352418   -0.827664   -1.840083 C.3        1 UNL1     0.1275
     17 N         6.536939   -0.23292   -2.962134 N.2        1 UNL1     -0.2557
     18 C         7.148473   -2.337404   -1.922501 C.3        1 UNL1     0.0016
     19 C         8.180448   -3.016649   -1.03636 C.3        1 UNL1     0.0026
     20 N         8.011627   -2.53889   0.329024 N.3        1 UNL1     -0.3018
     21 C         8.128836   -1.089201   0.499412 C.3        1 UNL1     0.0026
     22 C         7.080109   -0.427288   -0.396097 C.3        1 UNL1     0.0016
     23 C         8.736568   -3.335423   1.298889 C.3        1 UNL1     0.0012
     24 C         9.17144   -2.468337   2.490864 C.3        1 UNL1     -0.0339
     25 C         10.524352   -2.929276   3.057628 C.3        1 UNL1     -0.0615
     26 C         9.20446   -1.004934   2.08572 C.3        1 UNL1     -0.0615
     27 C         8.16017   0.685506   -7.575581 C.ar        1 UNL1     0.1347
     28 C         6.946434   1.127721   -8.070899 C.ar        1 UNL1     0.0342
     29 C         5.927479   1.245936   -7.101919 C.ar        1 UNL1     0.1435
     30 C         6.112552   0.89891   -5.763061 C.ar        1 UNL1     0.0774
     31 O         4.659278   1.557994   -7.447305 O.3        1 UNL1     -0.4436
     32 C         3.863347   1.126275   -6.33331 C.3        1 UNL1     0.3143
     33 C         4.8143   1.099275   -5.15383 C.2        1 UNL1     0.2504
     34 C         6.602413   1.316399   -9.522157 C.3        1 UNL1     -0.0327
     35 O         2.902822   2.156802   -6.071279 O.2        1 UNL1     -0.4528
     36 C         -0.141749   0.401346   -4.637037 C.3        1 UNL1     0.0854
     37 C         -0.250019   -0.527591   -3.367047 C.3        1 UNL1     0.0236
     38 C         -1.342098   -0.069483   -2.28573 C.3        1 UNL1     0.1131
     39 C         -1.350106   1.423039   -1.761724 C.3        1 UNL1     0.0200
     40 C         0.078758   2.186917   -1.365141 C.3        1 UNL1     0.0661
     41 C         1.29423   1.561593   -0.360547 C.3        1 UNL1     0.0091
     42 C         3.113056   1.796675   -0.405393 C.3        1 UNL1     0.0661
     43 C         9.634916   -0.290364   -5.803448 C.2        1 UNL1     0.2131
     44 O         10.455446   -0.770341   -6.564427 O.2        1 UNL1     -0.2851
     45 O         9.258893   0.618288   -8.429822 O.3        1 UNL1     -0.5056
     46 O         4.560305   1.234984   -3.977853 O.2        1 UNL1     -0.2836
     47 C         4.344303   4.158861   -0.553457 C.3        1 UNL1     -0.0566
     48 O         3.226814   2.079147   1.045946 O.3        1 UNL1     -0.3909
     49 C         1.045244   0.08401   -0.155005 C.3        1 UNL1     -0.0577
     50 O         0.657017   2.79117   -2.504535 O.3        1 UNL1     -0.3910
     51 O         -0.88131   1.600544   -4.587995 O.3        1 UNL1     -0.3753
     52 C         1.141102   -1.106708   -2.949486 C.3        1 UNL1     -0.0564
     53 O         -1.67372   -1.132532   -1.279609 O.3        1 UNL1     -0.4608
     54 C         -1.931316   -0.917227   0.049006 C.2        1 UNL1     0.3042
     55 O         -1.467305   -1.531427   1.008845 O.2        1 UNL1     -0.2512
     56 C         -2.846251   0.246797   0.30328 C.3        1 UNL1     0.0332
     57 C         -2.411551   2.236523   -2.639079 C.3        1 UNL1     -0.0567
     58 C         3.418216   -0.320811   -6.648473 C.3        1 UNL1     0.0210
     59 C         -2.030883   1.630766   -5.432644 C.3        1 UNL1     0.0372
     60 C         1.245706   0.768516   -5.031137 C.2        1 UNL1     -0.0208
     61 C         1.758972   1.945283   -5.392417 C.2        1 UNL1     0.0882
     62 H         4.399269   2.549656   -1.964753 H        1 UNL1     0.0365
     63 H         6.36926   2.511905   -2.50135 H        1 UNL1     0.0576
     64 H         8.198384   2.515019   -0.021215 H        1 UNL1     0.0615
     65 H         8.768652   2.288073   -3.084081 H        1 UNL1     0.0622
     66 H         -0.537163   -0.209806   -5.460559 H        1 UNL1     0.0645
     67 H         -0.700635   -1.45834   -3.753325 H        1 UNL1     0.0362
     68 H         -2.255094   -0.170721   -2.892122 H        1 UNL1     0.0741
     69 H         -1.905843   1.463345   -0.834395 H        1 UNL1     0.0359
     70 H         -0.316131   3.034507   -0.772931 H        1 UNL1     0.0600
     71 H         0.969936   1.974093   0.61497 H        1 UNL1     0.0348
     72 H         2.685537   2.627194   -0.985722 H        1 UNL1     0.0602
     73 H         1.829062   -0.114241   -5.118799 H        1 UNL1     0.0628
     74 H         1.247922   2.901929   -5.278869 H        1 UNL1     0.1022
     75 H         12.397437   0.672717   -1.69678 H        1 UNL1     0.0279
     76 H         12.542211   2.313944   -1.208198 H        1 UNL1     0.0279
     77 H         11.559258   1.119443   -0.268907 H        1 UNL1     0.0279
     78 H         11.040813   -0.595618   -2.850918 H        1 UNL1     0.1553
     79 H         9.496633   -0.822071   -1.630077 H        1 UNL1     0.1484
     80 H         6.126867   -2.578063   -1.604429 H        1 UNL1     0.0317
     81 H         7.246506   -2.689709   -2.954936 H        1 UNL1     0.0317
     82 H         9.205108   -2.838176   -1.394314 H        1 UNL1     0.0428
     83 H         8.018212   -4.092337   -1.111359 H        1 UNL1     0.0428
     84 H         7.919165   -0.748925   1.518265 H        1 UNL1     0.0428
     85 H         9.151065   -0.736114   0.30526 H        1 UNL1     0.0428
     86 H         7.104573   0.61742   -0.147146 H        1 UNL1     0.0317
     87 H         6.074331   -0.73811   -0.088044 H        1 UNL1     0.0317
     88 H         8.064284   -4.122018   1.665765 H        1 UNL1     0.0429
     89 H         9.597782   -3.837071   0.83907 H        1 UNL1     0.0429
     90 H         8.417278   -2.542803   3.28327 H        1 UNL1     0.0308
     91 H         10.390051   -3.607047   3.905975 H        1 UNL1     0.0233
     92 H         11.114946   -3.431161   2.287616 H        1 UNL1     0.0233
     93 H         11.135365   -2.091029   3.413775 H        1 UNL1     0.0233
     94 H         9.542934   -0.388143   2.925267 H        1 UNL1     0.0233
     95 H         9.905196   -0.862016   1.258372 H        1 UNL1     0.0233
     96 H         8.216061   -0.654298   1.775736 H        1 UNL1     0.0233
     97 H         5.759244   0.702341   -9.824199 H        1 UNL1     0.0280
     98 H         6.316393   2.351896   -9.74842 H        1 UNL1     0.0280
     99 H         7.469588   1.043388   -10.145509 H        1 UNL1     0.0280
     100 H         9.530035   1.446567   -8.784869 H        1 UNL1     0.2922
     101 H         3.517753   4.507601   -1.172207 H        1 UNL1     0.0236
     102 H         5.205301   4.824188   -0.608278 H        1 UNL1     0.0236
     103 H         3.979063   4.256713   0.482506 H        1 UNL1     0.0236
     104 H         3.113727   3.042004   1.168786 H        1 UNL1     0.2098
     105 H         1.306272   -0.538245   -1.00734 H        1 UNL1     0.0234
     106 H         1.474368   -0.327332   0.758547 H        1 UNL1     0.0234
     107 H         0.0   0.0   0.0 H        1 UNL1     0.0234
     108 H         1.578863   3.018581   -2.275946 H        1 UNL1     0.2098
     109 H         1.590228   -1.722072   -3.741524 H        1 UNL1     0.0234
     110 H         1.852632   -0.334622   -2.637473 H        1 UNL1     0.0234
     111 H         1.05958   -1.763395   -2.073094 H        1 UNL1     0.0234
     112 H         -2.34739   0.978895   0.945555 H        1 UNL1     0.0342
     113 H         -3.189057   0.707948   -0.621743 H        1 UNL1     0.0342
     114 H         -3.731444   -0.123159   0.838752 H        1 UNL1     0.0342
     115 H         -2.929537   3.00298   -2.04627 H        1 UNL1     0.0234
     116 H         -1.980046   2.731907   -3.511115 H        1 UNL1     0.0234
     117 H         -3.26159   1.622084   -2.982357 H        1 UNL1     0.0234
     118 H         2.335714   -0.385744   -6.85579 H        1 UNL1     0.0309
     119 H         3.969856   -0.76823   -7.481367 H        1 UNL1     0.0309
     120 H         3.553344   -0.996991   -5.797222 H        1 UNL1     0.0309
     121 H         -1.776938   2.218808   -6.314163 H        1 UNL1     0.0524
     122 H         -2.323237   0.624952   -5.777471 H        1 UNL1     0.0524
     123 H         -2.869558   2.081905   -4.909967 H        1 UNL1     0.0524
@<TRIPOS>BOND
     1     1     2    1
     2     1    42    1
     3     2     3    2
     4     3     4    1
     5     4     5    2
     6     5     7    1
     7     6    75    1
     8     6    76    1
     9     6    77    1
    10     7     9   am
    11     9    10    1
    12    10    11    2
    13    10    43    1
    14    11    14    1
    15    11    15    1
    16    12    13   ar
    17    12    27   ar
    18    12    43    1
    19    13    14    1
    20    13    30   ar
    21    14    17    2
    22    15    16    1
    23    16    17    1
    24    16    18    1
    25    16    22    1
    26    18    19    1
    27    19    20    1
    28    20    21    1
    29    21    22    1
    30    23    24    1
    31    23    88    1
    32    23    89    1
    33    24    25    1
    34    24    26    1
    35    24    90    1
    36    25    91    1
    37    25    92    1
    38    25    93    1
    39    26    94    1
    40    26    95    1
    41    26    96    1
    42    27    28   ar
    43    28    29   ar
    44    29    30   ar
    45    29    31    1
    46    30    33    1
    47    31    32    1
    48    32    33    1
    49    32    35    1
    50    34    97    1
    51    34    98    1
    52    34    99    1
    53    35    61    1
    54    36    37    1
    55    36    60    1
    56    37    38    1
    57    38    39    1
    58    39    40    1
    59    40    41    1
    60    41    42    1
    61    45   100    1
    62    47   101    1
    63    47   102    1
    64    47   103    1
    65    48   104    1
    66    49   105    1
    67    49   106    1
    68    49   107    1
    69    50   108    1
    70    51    59    1
    71    52   109    1
    72    52   110    1
    73    52   111    1
    74    53    54    1
    75    54    55    2
    76    54    56    1
    77    56   112    1
    78    56   113    1
    79    56   114    1
    80    57   115    1
    81    57   116    1
    82    57   117    1
    83    58   118    1
    84    58   119    1
    85    58   120    1
    86    59   121    1
    87    59   122    1
    88    59   123    1
    89    60    61    2
    90     1    47    1
    91     1    62    1
    92     2    63    1
    93     3    64    1
    94     4    65    1
    95     5     6    1
    96     7     8    2
    97     9    78    1
    98    15    79    1
    99    18    80    1
   100    18    81    1
   101    19    82    1
   102    19    83    1
   103    20    23    1
   104    21    84    1
   105    21    85    1
   106    22    86    1
   107    22    87    1
   108    27    45    1
   109    28    34    1
   110    32    58    1
   111    33    46    2
   112    36    51    1
   113    36    66    1
   114    37    52    1
   115    37    67    1
   116    38    53    1
   117    38    68    1
   118    42    48    1
   119    42    72    1
   120    43    44    2
   121    60    73    1
   122    61    74    1
   123    39    69    1
   124    39    57    1
   125    40    70    1
   126    40    50    1
   127    41    71    1
   128    41    49    1
