@<TRIPOS>MOLECULE
*****
 123 128 0 0 0
SMALL
GASTEIGER

@<TRIPOS>ATOM
     1 C         -0.406682   5.432801   -0.42528 C.3        1 UNL1     0.0009
     2 C         0.093651   6.946148   -1.372109 C.2        1 UNL1     -0.0787
     3 C         0.947008   8.105265   -1.52792 C.2        1 UNL1     -0.0649
     4 C         1.001222   9.190549   -2.826217 C.2        1 UNL1     -0.0542
     5 C         1.781936   10.168924   -3.489802 C.2        1 UNL1     0.0115
     6 C         3.067579   11.034494   -3.383819 C.3        1 UNL1     -0.0348
     7 C         1.405779   10.571302   -4.997644 C.2        1 UNL1     0.2441
     8 O         0.80632   11.598997   -5.282282 O.2        1 UNL1     -0.2702
     9 N         2.036728   9.798789   -5.988239 N.am        1 UNL1     -0.2772
     10 C         1.288719   8.679632   -6.273359 C.2        1 UNL1     0.1049
     11 C         1.448575   7.650338   -5.461434 C.2        1 UNL1     0.0801
     12 C         -1.034767   7.934002   -6.823614 C.ar        1 UNL1     0.0753
     13 C         -0.885859   6.963439   -5.782249 C.ar        1 UNL1     0.0305
     14 C         0.409165   6.704669   -5.156947 C.2        1 UNL1     0.0924
     15 N         2.378839   7.432081   -4.516182 N.pl3        1 UNL1     -0.3170
     16 C         2.211632   6.085452   -4.037762 C.3        1 UNL1     0.1275
     17 N         0.749188   5.78494   -4.258388 N.2        1 UNL1     -0.2557
     18 C         2.979845   5.169995   -4.986176 C.3        1 UNL1     0.0016
     19 C         4.424811   5.638549   -5.050368 C.3        1 UNL1     0.0026
     20 N         4.990233   5.596476   -3.708893 N.3        1 UNL1     -0.3018
     21 C         4.281196   6.398759   -2.709905 C.3        1 UNL1     0.0026
     22 C         2.833264   5.908073   -2.658756 C.3        1 UNL1     0.0016
     23 C         6.433055   5.733727   -3.700488 C.3        1 UNL1     0.0012
     24 C         6.843353   7.069071   -3.059967 C.3        1 UNL1     -0.0339
     25 C         5.659844   8.048377   -2.994207 C.3        1 UNL1     -0.0615
     26 C         7.44397   6.82505   -1.68647 C.3        1 UNL1     -0.0615
     27 C         -2.243812   8.0899   -7.497428 C.ar        1 UNL1     0.1347
     28 C         -3.357918   7.309053   -7.246239 C.ar        1 UNL1     0.0342
     29 C         -3.202903   6.393543   -6.183707 C.ar        1 UNL1     0.1435
     30 C         -2.008946   6.2513   -5.475574 C.ar        1 UNL1     0.0774
     31 O         -4.159996   5.486653   -5.889547 O.3        1 UNL1     -0.4436
     32 C         -3.481174   4.477353   -5.127059 C.3        1 UNL1     0.3143
     33 C         -2.264917   5.170306   -4.546758 C.2        1 UNL1     0.2504
     34 C         -4.599605   7.246605   -8.09147 C.3        1 UNL1     -0.0327
     35 O         -4.330199   4.132697   -4.025415 O.2        1 UNL1     -0.4528
     36 C         -3.585308   0.495449   -3.235697 C.3        1 UNL1     0.0854
     37 C         -2.210979   -0.18144   -2.86078 C.3        1 UNL1     0.0236
     38 C         -2.21563   -1.002752   -1.483403 C.3        1 UNL1     0.1131
     39 C         -2.763846   -0.321777   -0.16507 C.3        1 UNL1     0.0200
     40 C         -2.352873   1.251484   0.206933 C.3        1 UNL1     0.0661
     41 C         -0.782771   1.89364   0.212118 C.3        1 UNL1     0.0091
     42 C         -0.187442   3.584763   -0.176587 C.3        1 UNL1     0.0661
     43 C         0.166776   8.707712   -7.223521 C.2        1 UNL1     0.2131
     44 O         0.28697   9.252581   -8.305838 O.2        1 UNL1     -0.2851
     45 O         -2.318211   9.088367   -8.466431 O.3        1 UNL1     -0.5056
     46 O         -1.657511   4.903789   -3.533901 O.2        1 UNL1     -0.2836
     47 C         -1.192151   5.831616   0.852986 C.3        1 UNL1     -0.0566
     48 O         0.673135   3.681633   1.027216 O.3        1 UNL1     -0.3909
     49 C         0.142062   0.927201   -0.493696 C.3        1 UNL1     -0.0577
     50 O         -3.244741   2.160727   -0.405906 O.3        1 UNL1     -0.3910
     51 O         -4.587017   0.445794   -2.244967 O.3        1 UNL1     -0.3753
     52 C         -0.992162   0.692353   -3.303412 C.3        1 UNL1     -0.0564
     53 O         -1.033389   -1.913207   -1.323074 O.3        1 UNL1     -0.4608
     54 C         -0.298827   -2.450446   -2.347635 C.2        1 UNL1     0.3042
     55 O         0.925371   -2.446858   -2.470776 O.2        1 UNL1     -0.2512
     56 C         -1.131866   -3.157867   -3.378321 C.3        1 UNL1     0.0332
     57 C         -4.296217   -0.750177   -0.002318 C.3        1 UNL1     -0.0567
     58 C         -3.010107   3.407313   -6.139303 C.3        1 UNL1     0.0210
     59 C         -4.610492   1.564571   -1.359725 C.3        1 UNL1     0.0372
     60 C         -3.488124   1.913488   -3.67715 C.2        1 UNL1     -0.0208
     61 C         -4.225584   2.974341   -3.346258 C.2        1 UNL1     0.0882
     62 H         -1.154663   5.219737   -1.198481 H        1 UNL1     0.0365
     63 H         -0.664104   6.954149   -2.158374 H        1 UNL1     0.0576
     64 H         1.785333   8.2937   -0.853523 H        1 UNL1     0.0615
     65 H         0.088557   8.971677   -3.387128 H        1 UNL1     0.0622
     66 H         -3.941432   -0.068388   -4.109373 H        1 UNL1     0.0645
     67 H         -2.101637   -0.993689   -3.600277 H        1 UNL1     0.0362
     68 H         -2.950471   -1.782166   -1.736474 H        1 UNL1     0.0741
     69 H         -2.39463   -0.871861   0.690205 H        1 UNL1     0.0359
     70 H         -2.629369   1.272519   1.278459 H        1 UNL1     0.0600
     71 H         -0.50763   1.722951   1.271419 H        1 UNL1     0.0348
     72 H         -1.261464   3.683238   0.038109 H        1 UNL1     0.0602
     73 H         -2.769228   1.988685   -4.454828 H        1 UNL1     0.0628
     74 H         -4.940984   2.995633   -2.523466 H        1 UNL1     0.1022
     75 H         3.970012   10.384967   -3.28007 H        1 UNL1     0.0279
     76 H         3.315434   11.643171   -4.250508 H        1 UNL1     0.0279
     77 H         3.111998   11.617717   -2.45238 H        1 UNL1     0.0279
     78 H         2.943436   9.483238   -5.65003 H        1 UNL1     0.1553
     79 H         3.255176   7.919119   -4.474201 H        1 UNL1     0.1484
     80 H         2.909274   4.137857   -4.622204 H        1 UNL1     0.0317
     81 H         2.534408   5.180666   -5.986737 H        1 UNL1     0.0317
     82 H         4.507149   6.646419   -5.483185 H        1 UNL1     0.0428
     83 H         4.953999   4.973257   -5.733301 H        1 UNL1     0.0428
     84 H         4.677584   6.287066   -1.695897 H        1 UNL1     0.0428
     85 H         4.368177   7.475037   -2.913318 H        1 UNL1     0.0428
     86 H         2.382425   6.422154   -1.830232 H        1 UNL1     0.0317
     87 H         2.804882   4.855842   -2.350374 H        1 UNL1     0.0317
     88 H         6.850509   4.915096   -3.099764 H        1 UNL1     0.0429
     89 H         6.848884   5.635187   -4.711502 H        1 UNL1     0.0429
     90 H         7.640752   7.524732   -3.658917 H        1 UNL1     0.0308
     91 H         5.701758   8.778146   -3.808322 H        1 UNL1     0.0233
     92 H         4.710178   7.510479   -3.043283 H        1 UNL1     0.0233
     93 H         5.640619   8.617907   -2.057137 H        1 UNL1     0.0233
     94 H         6.78673   7.230132   -0.909437 H        1 UNL1     0.0233
     95 H         7.551221   5.750954   -1.511033 H        1 UNL1     0.0233
     96 H         8.42524   7.298147   -1.590255 H        1 UNL1     0.0233
     97 H         -5.479578   6.999317   -7.505188 H        1 UNL1     0.0280
     98 H         -4.820398   8.207596   -8.574173 H        1 UNL1     0.0280
     99 H         -4.47675   6.477504   -8.871525 H        1 UNL1     0.0280
     100 H         -1.610473   9.708262   -8.445007 H        1 UNL1     0.2922
     101 H         -0.783704   6.755362   1.262279 H        1 UNL1     0.0236
     102 H         -1.231757   5.036888   1.597179 H        1 UNL1     0.0236
     103 H         -2.247638   6.064926   0.634568 H        1 UNL1     0.0236
     104 H         0.162706   3.331905   1.783603 H        1 UNL1     0.2098
     105 H         -0.080941   0.780609   -1.547542 H        1 UNL1     0.0234
     106 H         1.204005   1.131007   -0.357067 H        1 UNL1     0.0234
     107 H         0.0   0.0   0.0 H        1 UNL1     0.0234
     108 H         -2.994149   2.222648   -1.347786 H        1 UNL1     0.2098
     109 H         -1.305036   1.624608   -3.794047 H        1 UNL1     0.0234
     110 H         -0.306861   0.923359   -2.480769 H        1 UNL1     0.0234
     111 H         -0.362819   0.168189   -4.034935 H        1 UNL1     0.0234
     112 H         -1.40367   -4.154359   -3.01711 H        1 UNL1     0.0342
     113 H         -2.017574   -2.586328   -3.65165 H        1 UNL1     0.0342
     114 H         -0.523382   -3.282544   -4.284614 H        1 UNL1     0.0342
     115 H         -4.849576   -0.654365   -0.946671 H        1 UNL1     0.0234
     116 H         -4.435841   -1.771342   0.357926 H        1 UNL1     0.0234
     117 H         -4.874307   -0.075916   0.65276 H        1 UNL1     0.0234
     118 H         -2.032252   2.976199   -5.861912 H        1 UNL1     0.0309
     119 H         -3.733181   2.59686   -6.275435 H        1 UNL1     0.0309
     120 H         -2.82913   3.822919   -7.136612 H        1 UNL1     0.0309
     121 H         -5.26315   1.310766   -0.524874 H        1 UNL1     0.0524
     122 H         -3.614047   1.791034   -0.94518 H        1 UNL1     0.0524
     123 H         -4.986073   2.443934   -1.875239 H        1 UNL1     0.0524
@<TRIPOS>BOND
     1     1     2    1
     2     1    42    1
     3     2     3    2
     4     3     4    1
     5     4     5    2
     6     5     7    1
     7     6    75    1
     8     6    76    1
     9     6    77    1
    10     7     9   am
    11     9    10    1
    12    10    11    2
    13    10    43    1
    14    11    14    1
    15    11    15    1
    16    12    13   ar
    17    12    27   ar
    18    12    43    1
    19    13    14    1
    20    13    30   ar
    21    14    17    2
    22    15    16    1
    23    16    17    1
    24    16    18    1
    25    16    22    1
    26    18    19    1
    27    19    20    1
    28    20    21    1
    29    21    22    1
    30    23    24    1
    31    23    88    1
    32    23    89    1
    33    24    25    1
    34    24    26    1
    35    24    90    1
    36    25    91    1
    37    25    92    1
    38    25    93    1
    39    26    94    1
    40    26    95    1
    41    26    96    1
    42    27    28   ar
    43    28    29   ar
    44    29    30   ar
    45    29    31    1
    46    30    33    1
    47    31    32    1
    48    32    33    1
    49    32    35    1
    50    34    97    1
    51    34    98    1
    52    34    99    1
    53    35    61    1
    54    36    37    1
    55    36    60    1
    56    37    38    1
    57    38    39    1
    58    39    40    1
    59    40    41    1
    60    41    42    1
    61    45   100    1
    62    47   101    1
    63    47   102    1
    64    47   103    1
    65    48   104    1
    66    49   105    1
    67    49   106    1
    68    49   107    1
    69    50   108    1
    70    51    59    1
    71    52   109    1
    72    52   110    1
    73    52   111    1
    74    53    54    1
    75    54    55    2
    76    54    56    1
    77    56   112    1
    78    56   113    1
    79    56   114    1
    80    57   115    1
    81    57   116    1
    82    57   117    1
    83    58   118    1
    84    58   119    1
    85    58   120    1
    86    59   121    1
    87    59   122    1
    88    59   123    1
    89    60    61    2
    90     1    47    1
    91     1    62    1
    92     2    63    1
    93     3    64    1
    94     4    65    1
    95     5     6    1
    96     7     8    2
    97     9    78    1
    98    15    79    1
    99    18    80    1
   100    18    81    1
   101    19    82    1
   102    19    83    1
   103    20    23    1
   104    21    84    1
   105    21    85    1
   106    22    86    1
   107    22    87    1
   108    27    45    1
   109    28    34    1
   110    32    58    1
   111    33    46    2
   112    36    51    1
   113    36    66    1
   114    37    52    1
   115    37    67    1
   116    38    53    1
   117    38    68    1
   118    42    48    1
   119    42    72    1
   120    43    44    2
   121    60    73    1
   122    61    74    1
   123    39    69    1
   124    39    57    1
   125    40    70    1
   126    40    50    1
   127    41    71    1
   128    41    49    1
