@<TRIPOS>MOLECULE
*****
 123 128 0 0 0
SMALL
GASTEIGER

@<TRIPOS>ATOM
     1 C         4.718366   2.781144   -0.118405 C.3        1 UNL1     0.0009
     2 C         6.117148   3.385025   -1.174706 C.2        1 UNL1     -0.0787
     3 C         7.481871   3.262322   -1.642169 C.2        1 UNL1     -0.0649
     4 C         8.252399   4.162217   -2.851645 C.2        1 UNL1     -0.0542
     5 C         9.339199   4.195335   -3.759856 C.2        1 UNL1     0.0115
     6 C         10.667252   3.493663   -4.156407 C.3        1 UNL1     -0.0348
     7 C         9.284769   5.213603   -4.999677 C.2        1 UNL1     0.2441
     8 O         9.902733   6.269146   -5.021463 O.2        1 UNL1     -0.2702
     9 N         8.691034   4.693858   -6.163075 N.am        1 UNL1     -0.2772
     10 C         7.33112   4.902502   -6.142496 C.2        1 UNL1     0.1049
     11 C         6.617454   4.022453   -5.463955 C.2        1 UNL1     0.0801
     12 C         5.600564   6.665706   -5.750552 C.ar        1 UNL1     0.0753
     13 C         4.973704   5.740823   -4.855986 C.ar        1 UNL1     0.0305
     14 C         5.39064   4.342156   -4.785654 C.2        1 UNL1     0.0924
     15 N         6.972343   2.829448   -4.956688 N.pl3        1 UNL1     -0.3170
     16 C         5.782071   2.191381   -4.460323 C.3        1 UNL1     0.1275
     17 N         4.864809   3.333349   -4.096643 N.2        1 UNL1     -0.2557
     18 C         5.125358   1.479684   -5.639271 C.3        1 UNL1     0.0016
     19 C         6.13687   0.527624   -6.257345 C.3        1 UNL1     0.0026
     20 N         6.563697   -0.425119   -5.241901 N.3        1 UNL1     -0.3018
     21 C         7.152765   0.169219   -4.040181 C.3        1 UNL1     0.0026
     22 C         6.118047   1.118289   -3.433123 C.3        1 UNL1     0.0016
     23 C         7.29102   -1.550371   -5.79458 C.3        1 UNL1     0.0012
     24 C         6.346784   -2.461523   -6.594566 C.3        1 UNL1     -0.0339
     25 C         6.758759   -3.938345   -6.479102 C.3        1 UNL1     -0.0615
     26 C         4.911494   -2.244977   -6.147543 C.3        1 UNL1     -0.0615
     27 C         5.119551   7.964354   -5.899744 C.ar        1 UNL1     0.1347
     28 C         3.999517   8.438422   -5.240326 C.ar        1 UNL1     0.0342
     29 C         3.427932   7.525964   -4.328253 C.ar        1 UNL1     0.1435
     30 C         3.920649   6.233847   -4.141481 C.ar        1 UNL1     0.0774
     31 O         2.268393   7.79922   -3.691222 O.3        1 UNL1     -0.4436
     32 C         1.781215   6.519541   -3.260003 C.3        1 UNL1     0.3143
     33 C         3.0068   5.630848   -3.193832 C.2        1 UNL1     0.2504
     34 C         3.280897   9.725324   -5.536246 C.3        1 UNL1     -0.0327
     35 O         1.305742   6.67516   -1.917259 O.2        1 UNL1     -0.4528
     36 C         -1.494138   4.145573   -1.505011 C.3        1 UNL1     0.0854
     37 C         -1.459666   2.580753   -1.699104 C.3        1 UNL1     0.0236
     38 C         -1.960486   1.731636   -0.434222 C.3        1 UNL1     0.1131
     39 C         -1.358153   2.027415   0.998251 C.3        1 UNL1     0.0200
     40 C         0.28077   2.269954   1.192013 C.3        1 UNL1     0.0661
     41 C         1.511311   1.269252   0.59037 C.3        1 UNL1     0.0091
     42 C         3.203272   1.679998   0.01248 C.3        1 UNL1     0.0661
     43 C         6.725534   6.168717   -6.581036 C.2        1 UNL1     0.2131
     44 O         7.078126   6.694919   -7.621001 O.2        1 UNL1     -0.2851
     45 O         5.814764   8.81534   -6.756447 O.3        1 UNL1     -0.5056
     46 O         3.195084   4.65739   -2.499006 O.2        1 UNL1     -0.2836
     47 C         4.962891   3.158331   1.367502 C.3        1 UNL1     -0.0566
     48 O         3.854134   0.595906   0.787232 O.3        1 UNL1     -0.3909
     49 C         0.915823   0.321055   -0.426394 C.3        1 UNL1     -0.0577
     50 O         0.614989   3.626946   0.980841 O.3        1 UNL1     -0.3910
     51 O         -1.789075   4.598496   -0.202973 O.3        1 UNL1     -0.3753
     52 C         -0.245426   2.129717   -2.574967 C.3        1 UNL1     -0.0564
     53 O         -2.25122   0.294188   -0.75288 O.3        1 UNL1     -0.4608
     54 C         -3.332896   -0.416886   -0.303123 C.2        1 UNL1     0.3042
     55 O         -3.384995   -1.155436   0.679561 O.2        1 UNL1     -0.2512
     56 C         -4.580702   -0.186322   -1.107196 C.3        1 UNL1     0.0332
     57 C         -2.353646   3.034834   1.741405 C.3        1 UNL1     -0.0567
     58 C         0.851447   6.004315   -4.383214 C.3        1 UNL1     0.0210
     59 C         -2.39107   5.890579   -0.139815 C.3        1 UNL1     0.0372
     60 C         -0.263151   4.860403   -1.939579 C.2        1 UNL1     -0.0208
     61 C         0.431254   5.828682   -1.340429 C.2        1 UNL1     0.0882
     62 H         4.084066   3.569616   -0.541118 H        1 UNL1     0.0365
     63 H         5.673801   4.285874   -1.604107 H        1 UNL1     0.0576
     64 H         8.115193   2.423172   -1.345795 H        1 UNL1     0.0615
     65 H         7.580108   5.008916   -3.014768 H        1 UNL1     0.0622
     66 H         -2.294624   4.489264   -2.175195 H        1 UNL1     0.0645
     67 H         -2.264349   2.383293   -2.428524 H        1 UNL1     0.0362
     68 H         -3.00629   2.071597   -0.386872 H        1 UNL1     0.0741
     69 H         -1.549287   1.176644   1.638613 H        1 UNL1     0.0359
     70 H         0.36594   2.131246   2.286804 H        1 UNL1     0.0600
     71 H         1.654033   0.595508   1.457928 H        1 UNL1     0.0348
     72 H         2.878435   2.53083   0.628824 H        1 UNL1     0.0602
     73 H         -0.027508   4.576549   -2.935143 H        1 UNL1     0.0628
     74 H         0.290837   6.137423   -0.303993 H        1 UNL1     0.1022
     75 H         11.297024   3.307296   -3.253252 H        1 UNL1     0.0279
     76 H         10.580211   2.500105   -4.590383 H        1 UNL1     0.0279
     77 H         11.32836   4.140052   -4.752074 H        1 UNL1     0.0279
     78 H         8.846126   3.688803   -6.206515 H        1 UNL1     0.1553
     79 H         7.780571   2.315286   -5.255583 H        1 UNL1     0.1484
     80 H         4.236683   0.944316   -5.283737 H        1 UNL1     0.0317
     81 H         4.778606   2.200415   -6.387576 H        1 UNL1     0.0317
     82 H         6.997115   1.066484   -6.681045 H        1 UNL1     0.0428
     83 H         5.648519   0.032086   -7.096991 H        1 UNL1     0.0428
     84 H         7.391143   -0.561558   -3.26111 H        1 UNL1     0.0428
     85 H         8.114966   0.654828   -4.253889 H        1 UNL1     0.0428
     86 H         6.528972   1.430298   -2.490902 H        1 UNL1     0.0317
     87 H         5.219644   0.558686   -3.145352 H        1 UNL1     0.0317
     88 H         8.05914   -1.159704   -6.474776 H        1 UNL1     0.0429
     89 H         7.812648   -2.112522   -5.009301 H        1 UNL1     0.0429
     90 H         6.378222   -2.171857   -7.651599 H        1 UNL1     0.0308
     91 H         7.710906   -4.126312   -6.984262 H        1 UNL1     0.0233
     92 H         6.844185   -4.234749   -5.431029 H        1 UNL1     0.0233
     93 H         6.021202   -4.614053   -6.928837 H        1 UNL1     0.0233
     94 H         4.86   -1.419337   -5.429558 H        1 UNL1     0.0233
     95 H         4.287844   -1.983686   -7.007049 H        1 UNL1     0.0233
     96 H         4.50165   -3.141235   -5.673498 H        1 UNL1     0.0233
     97 H         2.24063   9.559729   -5.800163 H        1 UNL1     0.0280
     98 H         3.267535   10.400362   -4.670567 H        1 UNL1     0.0280
     99 H         3.77371   10.237952   -6.378531 H        1 UNL1     0.0280
     100 H         5.827009   8.540411   -7.656384 H        1 UNL1     0.2922
     101 H         4.322617   3.99559   1.644455 H        1 UNL1     0.0236
     102 H         6.010814   3.352578   1.593576 H        1 UNL1     0.0236
     103 H         4.673272   2.34544   2.054177 H        1 UNL1     0.0236
     104 H         4.231804   0.996262   1.594729 H        1 UNL1     0.2098
     105 H         0.693553   0.775897   -1.388437 H        1 UNL1     0.0234
     106 H         1.472893   -0.605262   -0.566169 H        1 UNL1     0.0234
     107 H         0.0   -0.0   0.0 H        1 UNL1     0.0234
     108 H         1.584998   3.674159   0.877779 H        1 UNL1     0.2098
     109 H         0.64761   2.744746   -2.396254 H        1 UNL1     0.0234
     110 H         0.007125   1.071462   -2.448248 H        1 UNL1     0.0234
     111 H         -0.462293   2.225089   -3.647263 H        1 UNL1     0.0234
     112 H         -5.407937   -0.7646   -0.684558 H        1 UNL1     0.0342
     113 H         -4.836101   0.870219   -1.173033 H        1 UNL1     0.0342
     114 H         -4.402796   -0.550046   -2.128577 H        1 UNL1     0.0342
     115 H         -3.154427   3.383629   1.074862 H        1 UNL1     0.0234
     116 H         -2.826717   2.615515   2.631587 H        1 UNL1     0.0234
     117 H         -1.881061   3.990899   2.025206 H        1 UNL1     0.0234
     118 H         -0.21502   6.090433   -4.110745 H        1 UNL1     0.0309
     119 H         1.017688   6.505313   -5.342155 H        1 UNL1     0.0309
     120 H         0.977445   4.933104   -4.574888 H        1 UNL1     0.0309
     121 H         -1.595626   6.629715   -0.230939 H        1 UNL1     0.0524
     122 H         -3.100319   6.062542   -0.966514 H        1 UNL1     0.0524
     123 H         -2.913123   6.016235   0.804518 H        1 UNL1     0.0524
@<TRIPOS>BOND
     1     1     2    1
     2     1    42    1
     3     2     3    2
     4     3     4    1
     5     4     5    2
     6     5     7    1
     7     6    75    1
     8     6    76    1
     9     6    77    1
    10     7     9   am
    11     9    10    1
    12    10    11    2
    13    10    43    1
    14    11    14    1
    15    11    15    1
    16    12    13   ar
    17    12    27   ar
    18    12    43    1
    19    13    14    1
    20    13    30   ar
    21    14    17    2
    22    15    16    1
    23    16    17    1
    24    16    18    1
    25    16    22    1
    26    18    19    1
    27    19    20    1
    28    20    21    1
    29    21    22    1
    30    23    24    1
    31    23    88    1
    32    23    89    1
    33    24    25    1
    34    24    26    1
    35    24    90    1
    36    25    91    1
    37    25    92    1
    38    25    93    1
    39    26    94    1
    40    26    95    1
    41    26    96    1
    42    27    28   ar
    43    28    29   ar
    44    29    30   ar
    45    29    31    1
    46    30    33    1
    47    31    32    1
    48    32    33    1
    49    32    35    1
    50    34    97    1
    51    34    98    1
    52    34    99    1
    53    35    61    1
    54    36    37    1
    55    36    60    1
    56    37    38    1
    57    38    39    1
    58    39    40    1
    59    40    41    1
    60    41    42    1
    61    45   100    1
    62    47   101    1
    63    47   102    1
    64    47   103    1
    65    48   104    1
    66    49   105    1
    67    49   106    1
    68    49   107    1
    69    50   108    1
    70    51    59    1
    71    52   109    1
    72    52   110    1
    73    52   111    1
    74    53    54    1
    75    54    55    2
    76    54    56    1
    77    56   112    1
    78    56   113    1
    79    56   114    1
    80    57   115    1
    81    57   116    1
    82    57   117    1
    83    58   118    1
    84    58   119    1
    85    58   120    1
    86    59   121    1
    87    59   122    1
    88    59   123    1
    89    60    61    2
    90     1    47    1
    91     1    62    1
    92     2    63    1
    93     3    64    1
    94     4    65    1
    95     5     6    1
    96     7     8    2
    97     9    78    1
    98    15    79    1
    99    18    80    1
   100    18    81    1
   101    19    82    1
   102    19    83    1
   103    20    23    1
   104    21    84    1
   105    21    85    1
   106    22    86    1
   107    22    87    1
   108    27    45    1
   109    28    34    1
   110    32    58    1
   111    33    46    2
   112    36    51    1
   113    36    66    1
   114    37    52    1
   115    37    67    1
   116    38    53    1
   117    38    68    1
   118    42    48    1
   119    42    72    1
   120    43    44    2
   121    60    73    1
   122    61    74    1
   123    39    69    1
   124    39    57    1
   125    40    70    1
   126    40    50    1
   127    41    71    1
   128    41    49    1
