@<TRIPOS>MOLECULE
*****
 123 128 0 0 0
SMALL
GASTEIGER

@<TRIPOS>ATOM
     1 C         5.169931   1.739067   0.496717 C.3        1 UNL1     0.0009
     2 C         6.609113   2.542229   -0.352236 C.2        1 UNL1     -0.0787
     3 C         7.891555   2.441438   -1.016489 C.2        1 UNL1     -0.0649
     4 C         8.772208   3.674703   -1.771382 C.2        1 UNL1     -0.0542
     5 C         9.793851   3.965174   -2.708905 C.2        1 UNL1     0.0115
     6 C         10.921835   3.33737   -3.573103 C.3        1 UNL1     -0.0348
     7 C         9.892702   5.448097   -3.315664 C.2        1 UNL1     0.2441
     8 O         10.717721   6.268267   -2.937258 O.2        1 UNL1     -0.2702
     9 N         9.144201   5.656205   -4.487239 N.am        1 UNL1     -0.2772
     10 C         7.86187   6.045406   -4.175031 C.2        1 UNL1     0.1049
     11 C         7.013906   5.075678   -3.883817 C.2        1 UNL1     0.0801
     12 C         6.564946   7.654875   -2.766155 C.ar        1 UNL1     0.0753
     13 C         5.803235   6.528517   -2.31925 C.ar        1 UNL1     0.0305
     14 C         5.918409   5.222437   -2.964185 C.2        1 UNL1     0.0924
     15 N         7.134174   3.746429   -4.042443 N.pl3        1 UNL1     -0.3170
     16 C         5.862821   3.149757   -3.729558 C.3        1 UNL1     0.1275
     17 N         5.227134   4.106443   -2.750591 N.2        1 UNL1     -0.2557
     18 C         5.011517   3.21014   -4.994207 C.3        1 UNL1     0.0016
     19 C         5.766369   2.524333   -6.121796 C.3        1 UNL1     0.0026
     20 N         6.033448   1.145815   -5.735295 N.3        1 UNL1     -0.3018
     21 C         6.795096   0.984272   -4.495067 C.3        1 UNL1     0.0026
     22 C         6.0164   1.676551   -3.375121 C.3        1 UNL1     0.0016
     23 C         6.477648   0.325158   -6.844282 C.3        1 UNL1     0.0012
     24 C         5.322841   0.077642   -7.8276 C.3        1 UNL1     -0.0339
     25 C         5.351625   1.080482   -8.992735 C.3        1 UNL1     -0.0615
     26 C         5.360064   -1.35726   -8.324039 C.3        1 UNL1     -0.0615
     27 C         6.362092   8.923089   -2.227082 C.ar        1 UNL1     0.1347
     28 C         5.402464   9.194702   -1.268233 C.ar        1 UNL1     0.0342
     29 C         4.698222   8.061705   -0.808315 C.ar        1 UNL1     0.1435
     30 C         4.915793   6.779136   -1.313193 C.ar        1 UNL1     0.0774
     31 O         3.656486   8.177466   0.043971 O.3        1 UNL1     -0.4436
     32 C         2.932621   6.945988   -0.098699 C.3        1 UNL1     0.3143
     33 C         3.944624   5.950821   -0.629459 C.2        1 UNL1     0.2504
     34 C         4.957732   10.561765   -0.8284 C.3        1 UNL1     -0.0327
     35 O         2.56967   6.510306   1.217242 O.2        1 UNL1     -0.4528
     36 C         -0.676603   4.584202   0.817337 C.3        1 UNL1     0.0854
     37 C         -0.9833   3.323976   -0.080041 C.3        1 UNL1     0.0236
     38 C         -1.587143   2.064277   0.707536 C.3        1 UNL1     0.1131
     39 C         -0.863862   1.532291   2.00989 C.3        1 UNL1     0.0200
     40 C         0.797003   1.383592   2.052962 C.3        1 UNL1     0.0661
     41 C         1.756217   0.612638   0.885423 C.3        1 UNL1     0.0091
     42 C         3.465125   0.971797   0.323246 C.3        1 UNL1     0.0661
     43 C         7.515849   7.445076   -3.885989 C.2        1 UNL1     0.2131
     44 O         7.91825   8.342207   -4.604298 O.2        1 UNL1     -0.2851
     45 O         7.176844   9.95653   -2.684922 O.3        1 UNL1     -0.5056
     46 O         3.958172   4.747292   -0.498357 O.2        1 UNL1     -0.2836
     47 C         5.56386   1.309206   1.935474 C.3        1 UNL1     -0.0566
     48 O         3.910906   -0.44014   0.405897 O.3        1 UNL1     -0.3909
     49 C         0.922979   0.381318   -0.355423 C.3        1 UNL1     -0.0577
     50 O         1.399081   2.600409   2.446127 O.3        1 UNL1     -0.3910
     51 O         -0.802612   4.395126   2.208669 O.3        1 UNL1     -0.3753
     52 C         0.062138   3.161214   -1.231352 C.3        1 UNL1     -0.0564
     53 O         -2.190718   1.026211   -0.192709 O.3        1 UNL1     -0.4608
     54 C         -2.415898   -0.283266   0.142693 C.2        1 UNL1     0.3042
     55 O         -1.845123   -1.27746   -0.304109 O.2        1 UNL1     -0.2512
     56 C         -3.446821   -0.45913   1.221111 C.3        1 UNL1     0.0332
     57 C         -1.585024   2.202989   3.270154 C.3        1 UNL1     -0.0567
     58 C         1.85911   7.192845   -1.184132 C.3        1 UNL1     0.0210
     59 C         -1.145317   5.568612   2.944433 C.3        1 UNL1     0.0372
     60 C         0.653848   5.210689   0.588045 C.2        1 UNL1     -0.0208
     61 C         1.566639   5.644408   1.458358 C.2        1 UNL1     0.0882
     62 H         4.695793   2.724169   0.583195 H        1 UNL1     0.0365
     63 H         6.34476   3.596563   -0.247506 H        1 UNL1     0.0576
     64 H         8.34761   1.473658   -1.236771 H        1 UNL1     0.0615
     65 H         8.286487   4.591119   -1.425348 H        1 UNL1     0.0622
     66 H         -1.41948   5.332068   0.506087 H        1 UNL1     0.0645
     67 H         -1.847573   3.63483   -0.692382 H        1 UNL1     0.0362
     68 H         -2.53377   2.503054   1.058101 H        1 UNL1     0.0741
     69 H         -1.197532   0.52188   2.205188 H        1 UNL1     0.0359
     70 H         0.906534   0.723284   2.93447 H        1 UNL1     0.0600
     71 H         1.797374   -0.408495   1.312683 H        1 UNL1     0.0348
     72 H         3.359084   1.460464   1.302672 H        1 UNL1     0.0602
     73 H         0.773275   5.407436   -0.448428 H        1 UNL1     0.0628
     74 H         1.547499   5.434064   2.52823 H        1 UNL1     0.1022
     75 H         10.964034   2.232049   -3.419743 H        1 UNL1     0.0279
     76 H         10.809562   3.420087   -4.651816 H        1 UNL1     0.0279
     77 H         11.927125   3.640242   -3.245444 H        1 UNL1     0.0279
     78 H         9.081123   4.786236   -5.011883 H        1 UNL1     0.1553
     79 H         7.799312   3.317003   -4.658979 H        1 UNL1     0.1484
     80 H         4.049084   2.721095   -4.801012 H        1 UNL1     0.0317
     81 H         4.787191   4.247251   -5.26574 H        1 UNL1     0.0317
     82 H         6.698321   3.05379   -6.368888 H        1 UNL1     0.0428
     83 H         5.142316   2.58043   -7.014243 H        1 UNL1     0.0428
     84 H         6.913079   -0.058824   -4.185485 H        1 UNL1     0.0428
     85 H         7.826005   1.350309   -4.597837 H        1 UNL1     0.0428
     86 H         6.531334   1.425447   -2.466398 H        1 UNL1     0.0317
     87 H         5.035906   1.20082   -3.250994 H        1 UNL1     0.0317
     88 H         7.275331   0.86529   -7.370831 H        1 UNL1     0.0429
     89 H         6.908045   -0.621344   -6.49262 H        1 UNL1     0.0429
     90 H         4.369594   0.186314   -7.296823 H        1 UNL1     0.0308
     91 H         6.301059   1.033615   -9.534473 H        1 UNL1     0.0233
     92 H         4.53175   0.887759   -9.688631 H        1 UNL1     0.0233
     93 H         5.228874   2.116682   -8.655013 H        1 UNL1     0.0233
     94 H         4.664468   -1.485736   -9.160386 H        1 UNL1     0.0233
     95 H         6.364364   -1.60355   -8.679967 H        1 UNL1     0.0233
     96 H         5.08347   -2.060357   -7.533394 H        1 UNL1     0.0233
     97 H         4.163478   10.513702   -0.089428 H        1 UNL1     0.0280
     98 H         5.771049   11.130384   -0.358884 H        1 UNL1     0.0280
     99 H         4.5861   11.126772   -1.698889 H        1 UNL1     0.0280
     100 H         6.711602   10.70768   -3.008875 H        1 UNL1     0.2922
     101 H         4.69966   0.877353   2.439772 H        1 UNL1     0.0236
     102 H         6.015534   2.113848   2.514719 H        1 UNL1     0.0236
     103 H         6.318577   0.505095   1.935434 H        1 UNL1     0.0236
     104 H         4.329227   -0.566688   1.279946 H        1 UNL1     0.2098
     105 H         0.712685   1.280395   -0.929224 H        1 UNL1     0.0234
     106 H         1.291592   -0.407589   -1.010922 H        1 UNL1     0.0234
     107 H         0.0   -0.0   0.0 H        1 UNL1     0.0234
     108 H         1.200165   3.259584   1.753531 H        1 UNL1     0.2098
     109 H         1.086332   3.045889   -0.849987 H        1 UNL1     0.0234
     110 H         -0.171127   2.334371   -1.910808 H        1 UNL1     0.0234
     111 H         0.085738   4.043805   -1.884363 H        1 UNL1     0.0234
     112 H         -3.574448   -1.522779   1.444064 H        1 UNL1     0.0342
     113 H         -3.198026   0.101559   2.120873 H        1 UNL1     0.0342
     114 H         -4.405581   -0.076485   0.84491 H        1 UNL1     0.0342
     115 H         -2.649753   1.936605   3.320961 H        1 UNL1     0.0234
     116 H         -1.135045   1.941851   4.230036 H        1 UNL1     0.0234
     117 H         -1.643327   3.30338   3.20948 H        1 UNL1     0.0234
     118 H         0.958509   7.681582   -0.772963 H        1 UNL1     0.0309
     119 H         2.230538   7.779888   -2.030078 H        1 UNL1     0.0309
     120 H         1.469235   6.26151   -1.609242 H        1 UNL1     0.0309
     121 H         -0.33956   6.289596   2.809184 H        1 UNL1     0.0524
     122 H         -2.074181   6.036131   2.577453 H        1 UNL1     0.0524
     123 H         -1.262625   5.330831   3.997901 H        1 UNL1     0.0524
@<TRIPOS>BOND
     1     1     2    1
     2     1    42    1
     3     2     3    2
     4     3     4    1
     5     4     5    2
     6     5     7    1
     7     6    75    1
     8     6    76    1
     9     6    77    1
    10     7     9   am
    11     9    10    1
    12    10    11    2
    13    10    43    1
    14    11    14    1
    15    11    15    1
    16    12    13   ar
    17    12    27   ar
    18    12    43    1
    19    13    14    1
    20    13    30   ar
    21    14    17    2
    22    15    16    1
    23    16    17    1
    24    16    18    1
    25    16    22    1
    26    18    19    1
    27    19    20    1
    28    20    21    1
    29    21    22    1
    30    23    24    1
    31    23    88    1
    32    23    89    1
    33    24    25    1
    34    24    26    1
    35    24    90    1
    36    25    91    1
    37    25    92    1
    38    25    93    1
    39    26    94    1
    40    26    95    1
    41    26    96    1
    42    27    28   ar
    43    28    29   ar
    44    29    30   ar
    45    29    31    1
    46    30    33    1
    47    31    32    1
    48    32    33    1
    49    32    35    1
    50    34    97    1
    51    34    98    1
    52    34    99    1
    53    35    61    1
    54    36    37    1
    55    36    60    1
    56    37    38    1
    57    38    39    1
    58    39    40    1
    59    40    41    1
    60    41    42    1
    61    45   100    1
    62    47   101    1
    63    47   102    1
    64    47   103    1
    65    48   104    1
    66    49   105    1
    67    49   106    1
    68    49   107    1
    69    50   108    1
    70    51    59    1
    71    52   109    1
    72    52   110    1
    73    52   111    1
    74    53    54    1
    75    54    55    2
    76    54    56    1
    77    56   112    1
    78    56   113    1
    79    56   114    1
    80    57   115    1
    81    57   116    1
    82    57   117    1
    83    58   118    1
    84    58   119    1
    85    58   120    1
    86    59   121    1
    87    59   122    1
    88    59   123    1
    89    60    61    2
    90     1    47    1
    91     1    62    1
    92     2    63    1
    93     3    64    1
    94     4    65    1
    95     5     6    1
    96     7     8    2
    97     9    78    1
    98    15    79    1
    99    18    80    1
   100    18    81    1
   101    19    82    1
   102    19    83    1
   103    20    23    1
   104    21    84    1
   105    21    85    1
   106    22    86    1
   107    22    87    1
   108    27    45    1
   109    28    34    1
   110    32    58    1
   111    33    46    2
   112    36    51    1
   113    36    66    1
   114    37    52    1
   115    37    67    1
   116    38    53    1
   117    38    68    1
   118    42    48    1
   119    42    72    1
   120    43    44    2
   121    60    73    1
   122    61    74    1
   123    39    69    1
   124    39    57    1
   125    40    70    1
   126    40    50    1
   127    41    71    1
   128    41    49    1
