@<TRIPOS>MOLECULE
*****
 123 128 0 0 0
SMALL
GASTEIGER

@<TRIPOS>ATOM
     1 C         5.168545   1.742431   0.499344 C.3        1 UNL1     0.0009
     2 C         6.607542   2.546784   -0.348797 C.2        1 UNL1     -0.0787
     3 C         7.890331   2.44703   -1.012534 C.2        1 UNL1     -0.0649
     4 C         8.770469   3.681083   -1.766739 C.2        1 UNL1     -0.0542
     5 C         9.792311   3.972486   -2.703757 C.2        1 UNL1     0.0115
     6 C         10.921082   3.345666   -3.56764 C.3        1 UNL1     -0.0348
     7 C         9.890415   5.455631   -3.310093 C.2        1 UNL1     0.2441
     8 O         10.714721   6.276261   -2.931129 O.2        1 UNL1     -0.2702
     9 N         9.142267   5.663534   -4.481931 N.am        1 UNL1     -0.2772
     10 C         7.859543   6.051788   -4.170163 C.2        1 UNL1     0.1049
     11 C         7.012111   5.081413   -3.879556 C.2        1 UNL1     0.0801
     12 C         6.560938   7.660019   -2.761421 C.ar        1 UNL1     0.0753
     13 C         5.7998   6.533032   -2.315126 C.ar        1 UNL1     0.0305
     14 C         5.916128   5.227196   -2.960348 C.2        1 UNL1     0.0924
     15 N         7.133344   3.752287   -4.038473 N.pl3        1 UNL1     -0.3170
     16 C         5.862263   3.154675   -3.726277 C.3        1 UNL1     0.1275
     17 N         5.225517   4.11068   -2.747332 N.2        1 UNL1     -0.2557
     18 C         5.011451   3.214809   -4.991269 C.3        1 UNL1     0.0016
     19 C         5.767242   2.529802   -6.118716 C.3        1 UNL1     0.0026
     20 N         6.03509   1.151364   -5.732456 N.3        1 UNL1     -0.3018
     21 C         6.796323   0.990018   -4.491948 C.3        1 UNL1     0.0026
     22 C         6.016688   1.681482   -3.372154 C.3        1 UNL1     0.0016
     23 C         6.480311   0.331293   -6.841466 C.3        1 UNL1     0.0012
     24 C         5.326086   0.083249   -7.825334 C.3        1 UNL1     -0.0339
     25 C         5.354683   1.086408   -8.9902 C.3        1 UNL1     -0.0615
     26 C         5.364488   -1.3515   -8.322126 C.3        1 UNL1     -0.0615
     27 C         6.356999   8.927957   -2.222108 C.ar        1 UNL1     0.1347
     28 C         5.396784   9.198675   -1.263594 C.ar        1 UNL1     0.0342
     29 C         4.693114   8.065084   -0.804264 C.ar        1 UNL1     0.1435
     30 C         4.911765   6.782793   -1.309379 C.ar        1 UNL1     0.0774
     31 O         3.650941   8.179923   0.047612 O.3        1 UNL1     -0.4436
     32 C         2.927969   6.947993   -0.095679 C.3        1 UNL1     0.3143
     33 C         3.940867   5.953646   -0.626268 C.2        1 UNL1     0.2504
     34 C         4.950944   10.565324   -0.823598 C.3        1 UNL1     -0.0327
     35 O         2.564758   6.511727   1.219996 O.2        1 UNL1     -0.4528
     36 C         -0.680045   4.583534   0.818229 C.3        1 UNL1     0.0854
     37 C         -0.985512   3.323331   -0.079602 C.3        1 UNL1     0.0236
     38 C         -1.588836   2.063023   0.707397 C.3        1 UNL1     0.1131
     39 C         -0.865744   1.531191   2.009919 C.3        1 UNL1     0.0200
     40 C         0.795202   1.383602   2.053653 C.3        1 UNL1     0.0661
     41 C         1.75543   0.613596   0.886321 C.3        1 UNL1     0.0091
     42 C         3.464331   0.974054   0.324957 C.3        1 UNL1     0.0661
     43 C         7.512454   7.451151   -3.880908 C.2        1 UNL1     0.2131
     44 O         7.914552   8.348737   -4.598817 O.2        1 UNL1     -0.2851
     45 O         7.171246   9.962065   -2.679339 O.3        1 UNL1     -0.5056
     46 O         3.955173   4.750093   -0.495469 O.2        1 UNL1     -0.2836
     47 C         5.562158   1.312467   1.938156 C.3        1 UNL1     -0.0566
     48 O         3.911031   -0.437602   0.407433 O.3        1 UNL1     -0.3909
     49 C         0.922871   0.382032   -0.354936 C.3        1 UNL1     -0.0577
     50 O         1.396293   2.600725   2.447385 O.3        1 UNL1     -0.3910
     51 O         -0.806513   4.394015   2.209458 O.3        1 UNL1     -0.3753
     52 C         0.060521   3.161572   -1.230514 C.3        1 UNL1     -0.0564
     53 O         -2.19133   1.02478   -0.193369 O.3        1 UNL1     -0.4608
     54 C         -2.415766   -0.284935   0.141602 C.2        1 UNL1     0.3042
     55 O         -1.844002   -1.278615   -0.305079 O.2        1 UNL1     -0.2512
     56 C         -3.447213   -0.461787   1.219356 C.3        1 UNL1     0.0332
     57 C         -1.587891   2.201077   3.27005 C.3        1 UNL1     -0.0567
     58 C         1.854748   7.194404   -1.181501 C.3        1 UNL1     0.0210
     59 C         -1.150321   5.56708   2.94538 C.3        1 UNL1     0.0372
     60 C         0.650079   5.210979   0.589658 C.2        1 UNL1     -0.0208
     61 C         1.56221   5.64509   1.460467 C.2        1 UNL1     0.0882
     62 H         4.693705   2.727191   0.585875 H        1 UNL1     0.0365
     63 H         6.342432   3.600912   -0.243907 H        1 UNL1     0.0576
     64 H         8.347133   1.479615   -1.232873 H        1 UNL1     0.0615
     65 H         8.283983   4.597082   -1.420675 H        1 UNL1     0.0622
     66 H         -1.423295   5.330978   0.506857 H        1 UNL1     0.0645
     67 H         -1.849737   3.633759   -0.692228 H        1 UNL1     0.0362
     68 H         -2.535906   2.50107   1.057675 H        1 UNL1     0.0741
     69 H         -1.198814   0.520504   2.204817 H        1 UNL1     0.0359
     70 H         0.904808   0.723142   2.935037 H        1 UNL1     0.0600
     71 H         1.797096   -0.407618   1.313336 H        1 UNL1     0.0348
     72 H         3.357547   1.462398   1.304463 H        1 UNL1     0.0602
     73 H         0.76981   5.408073   -0.446713 H        1 UNL1     0.0628
     74 H         1.542762   5.434459   2.530277 H        1 UNL1     0.1022
     75 H         10.963964   2.240334   -3.414546 H        1 UNL1     0.0279
     76 H         10.809208   3.428584   -4.646379 H        1 UNL1     0.0279
     77 H         11.92603   3.649132   -3.23948 H        1 UNL1     0.0279
     78 H         9.079999   4.793657   -5.006825 H        1 UNL1     0.1553
     79 H         7.799033   3.323468   -4.654838 H        1 UNL1     0.1484
     80 H         4.049268   2.725064   -4.798605 H        1 UNL1     0.0317
     81 H         4.786539   4.251838   -5.26263 H        1 UNL1     0.0317
     82 H         6.69894   3.059951   -6.365279 H        1 UNL1     0.0428
     83 H         5.143527   2.585706   -7.011411 H        1 UNL1     0.0428
     84 H         6.914881   -0.053078   -4.182584 H        1 UNL1     0.0428
     85 H         7.827028   1.356777   -4.59419 H        1 UNL1     0.0428
     86 H         6.531408   1.430493   -2.463277 H        1 UNL1     0.0317
     87 H         5.036463   1.205057   -3.248561 H        1 UNL1     0.0317
     88 H         7.27785   0.872099   -7.36754 H        1 UNL1     0.0429
     89 H         6.911199   -0.615008   -6.489866 H        1 UNL1     0.0429
     90 H         4.372543   0.191141   -7.294932 H        1 UNL1     0.0308
     91 H         6.304378   1.040322   -9.531549 H        1 UNL1     0.0233
     92 H         4.535232   0.89331   -9.686491 H        1 UNL1     0.0233
     93 H         5.231091   2.122438   -8.652263 H        1 UNL1     0.0233
     94 H         4.669331   -1.480231   -9.158799 H        1 UNL1     0.0233
     95 H         6.369104   -1.597019   -8.677694 H        1 UNL1     0.0233
     96 H         5.088036   -2.054987   -7.531779 H        1 UNL1     0.0233
     97 H         4.15641   10.516535   -0.084973 H        1 UNL1     0.0280
     98 H         5.763678   11.134372   -0.353593 H        1 UNL1     0.0280
     99 H         4.579296   11.130304   -1.694098 H        1 UNL1     0.0280
     100 H         6.705633   10.712984   -3.003295 H        1 UNL1     0.2922
     101 H         4.698038   0.8799   2.441979 H        1 UNL1     0.0236
     102 H         6.013043   2.117265   2.517798 H        1 UNL1     0.0236
     103 H         6.317418   0.508866   1.938228 H        1 UNL1     0.0236
     104 H         4.329069   -0.564093   1.281626 H        1 UNL1     0.2098
     105 H         0.712211   1.281115   -0.928595 H        1 UNL1     0.0234
     106 H         1.292293   -0.406456   -1.010482 H        1 UNL1     0.0234
     107 H         0.0   -0.0   0.0 H        1 UNL1     0.0234
     108 H         1.199618   3.259208   1.753492 H        1 UNL1     0.2098
     109 H         1.084632   3.046841   -0.848747 H        1 UNL1     0.0234
     110 H         -0.171899   2.334745   -1.910281 H        1 UNL1     0.0234
     111 H         0.0838   4.044346   -1.883288 H        1 UNL1     0.0234
     112 H         -3.574207   -1.525578   1.441992 H        1 UNL1     0.0342
     113 H         -3.199368   0.098879   2.119395 H        1 UNL1     0.0342
     114 H         -4.406022   -0.07975   0.842661 H        1 UNL1     0.0342
     115 H         -2.653864   1.938976   3.31687 H        1 UNL1     0.0234
     116 H         -1.141881   1.935171   4.230477 H        1 UNL1     0.0234
     117 H         -1.64144   3.301879   3.212539 H        1 UNL1     0.0234
     118 H         0.953644   7.682427   -0.770586 H        1 UNL1     0.0309
     119 H         2.226137   7.781915   -2.02714 H        1 UNL1     0.0309
     120 H         1.465682   6.262915   -1.607015 H        1 UNL1     0.0309
     121 H         -0.344993   6.288643   2.810655 H        1 UNL1     0.0524
     122 H         -2.079346   6.034066   2.578128 H        1 UNL1     0.0524
     123 H         -1.267912   5.32895   3.998736 H        1 UNL1     0.0524
@<TRIPOS>BOND
     1     1     2    1
     2     1    42    1
     3     2     3    2
     4     3     4    1
     5     4     5    2
     6     5     7    1
     7     6    75    1
     8     6    76    1
     9     6    77    1
    10     7     9   am
    11     9    10    1
    12    10    11    2
    13    10    43    1
    14    11    14    1
    15    11    15    1
    16    12    13   ar
    17    12    27   ar
    18    12    43    1
    19    13    14    1
    20    13    30   ar
    21    14    17    2
    22    15    16    1
    23    16    17    1
    24    16    18    1
    25    16    22    1
    26    18    19    1
    27    19    20    1
    28    20    21    1
    29    21    22    1
    30    23    24    1
    31    23    88    1
    32    23    89    1
    33    24    25    1
    34    24    26    1
    35    24    90    1
    36    25    91    1
    37    25    92    1
    38    25    93    1
    39    26    94    1
    40    26    95    1
    41    26    96    1
    42    27    28   ar
    43    28    29   ar
    44    29    30   ar
    45    29    31    1
    46    30    33    1
    47    31    32    1
    48    32    33    1
    49    32    35    1
    50    34    97    1
    51    34    98    1
    52    34    99    1
    53    35    61    1
    54    36    37    1
    55    36    60    1
    56    37    38    1
    57    38    39    1
    58    39    40    1
    59    40    41    1
    60    41    42    1
    61    45   100    1
    62    47   101    1
    63    47   102    1
    64    47   103    1
    65    48   104    1
    66    49   105    1
    67    49   106    1
    68    49   107    1
    69    50   108    1
    70    51    59    1
    71    52   109    1
    72    52   110    1
    73    52   111    1
    74    53    54    1
    75    54    55    2
    76    54    56    1
    77    56   112    1
    78    56   113    1
    79    56   114    1
    80    57   115    1
    81    57   116    1
    82    57   117    1
    83    58   118    1
    84    58   119    1
    85    58   120    1
    86    59   121    1
    87    59   122    1
    88    59   123    1
    89    60    61    2
    90     1    47    1
    91     1    62    1
    92     2    63    1
    93     3    64    1
    94     4    65    1
    95     5     6    1
    96     7     8    2
    97     9    78    1
    98    15    79    1
    99    18    80    1
   100    18    81    1
   101    19    82    1
   102    19    83    1
   103    20    23    1
   104    21    84    1
   105    21    85    1
   106    22    86    1
   107    22    87    1
   108    27    45    1
   109    28    34    1
   110    32    58    1
   111    33    46    2
   112    36    51    1
   113    36    66    1
   114    37    52    1
   115    37    67    1
   116    38    53    1
   117    38    68    1
   118    42    48    1
   119    42    72    1
   120    43    44    2
   121    60    73    1
   122    61    74    1
   123    39    69    1
   124    39    57    1
   125    40    70    1
   126    40    50    1
   127    41    71    1
   128    41    49    1
