@<TRIPOS>MOLECULE
*****
 123 128 0 0 0
SMALL
GASTEIGER

@<TRIPOS>ATOM
     1 C         5.067252   1.759235   1.113497 C.3        1 UNL1     0.0009
     2 C         6.631659   2.47059   0.418054 C.2        1 UNL1     -0.0787
     3 C         8.00084   2.303136   -0.02166 C.2        1 UNL1     -0.0649
     4 C         9.004414   3.449755   -0.759538 C.2        1 UNL1     -0.0542
     5 C         10.163775   3.639857   -1.551258 C.2        1 UNL1     0.0115
     6 C         11.404971   2.925858   -2.15372 C.3        1 UNL1     -0.0348
     7 C         10.375246   5.047324   -2.293758 C.2        1 UNL1     0.2441
     8 O         11.141299   5.908001   -1.882753 O.2        1 UNL1     -0.2702
     9 N         9.821974   5.121597   -3.583922 N.am        1 UNL1     -0.2772
     10 C         8.51166   5.536905   -3.521325 C.2        1 UNL1     0.1049
     11 C         7.616276   4.601269   -3.262302 C.2        1 UNL1     0.0801
     12 C         7.030925   7.285822   -2.518307 C.ar        1 UNL1     0.0753
     13 C         6.194368   6.212068   -2.075776 C.ar        1 UNL1     0.0305
     14 C         6.392353   4.843417   -2.547631 C.2        1 UNL1     0.0924
     15 N         7.742913   3.263206   -3.253497 N.pl3        1 UNL1     -0.3170
     16 C         6.430757   2.698781   -3.080505 C.3        1 UNL1     0.1275
     17 N         5.661994   3.754577   -2.324183 N.2        1 UNL1     -0.2557
     18 C         5.788633   2.6155   -4.461969 C.3        1 UNL1     0.0016
     19 C         6.701792   1.813103   -5.375145 C.3        1 UNL1     0.0026
     20 N         6.887506   0.486821   -4.802855 N.3        1 UNL1     -0.3018
     21 C         7.443615   0.466456   -3.448345 C.3        1 UNL1     0.0026
     22 C         6.508186   1.274332   -2.547121 C.3        1 UNL1     0.0016
     23 C         7.489233   -0.448987   -5.731742 C.3        1 UNL1     0.0012
     24 C         6.499426   -0.80869   -6.850962 C.3        1 UNL1     -0.0339
     25 C         6.676915   -2.264654   -7.31218 C.3        1 UNL1     -0.0615
     26 C         5.076468   -0.536212   -6.395191 C.3        1 UNL1     -0.0615
     27 C         6.762425   8.604768   -2.159967 C.ar        1 UNL1     0.1347
     28 C         5.668144   8.975957   -1.399165 C.ar        1 UNL1     0.0342
     29 C         4.886224   7.897302   -0.934117 C.ar        1 UNL1     0.1435
     30 C         5.163725   6.567927   -1.255012 C.ar        1 UNL1     0.0774
     31 O         3.725537   8.101468   -0.273717 O.3        1 UNL1     -0.4436
     32 C         3.017257   6.858438   -0.39241 C.3        1 UNL1     0.3143
     33 C         4.087057   5.815527   -0.645547 C.2        1 UNL1     0.2504
     34 C         5.177553   10.381094   -1.187011 C.3        1 UNL1     -0.0327
     35 O         2.447366   6.568755   0.889994 O.2        1 UNL1     -0.4528
     36 C         -0.72067   4.595339   0.199148 C.3        1 UNL1     0.0854
     37 C         -0.899245   3.242493   -0.591701 C.3        1 UNL1     0.0236
     38 C         -1.634891   2.074483   0.224585 C.3        1 UNL1     0.1131
     39 C         -1.131118   1.692603   1.674637 C.3        1 UNL1     0.0200
     40 C         0.500521   1.557229   1.993799 C.3        1 UNL1     0.0661
     41 C         1.620673   0.666746   1.082805 C.3        1 UNL1     0.0091
     42 C         3.400931   0.969655   0.759802 C.3        1 UNL1     0.0661
     43 C         8.142563   6.95829   -3.44526 C.2        1 UNL1     0.2131
     44 O         8.663801   7.772648   -4.185443 O.2        1 UNL1     -0.2851
     45 O         7.65189   9.585212   -2.594729 O.3        1 UNL1     -0.5056
     46 O         4.064572   4.633851   -0.382887 O.2        1 UNL1     -0.2836
     47 C         5.225717   1.492368   2.634567 C.3        1 UNL1     -0.0566
     48 O         3.810243   -0.4225   1.065557 O.3        1 UNL1     -0.3909
     49 C         0.988947   0.296247   -0.240504 C.3        1 UNL1     -0.0577
     50 O         1.049148   2.812731   2.340855 O.3        1 UNL1     -0.3910
     51 O         -1.065205   4.560159   1.565709 O.3        1 UNL1     -0.3753
     52 C         0.311281   2.958679   -1.53987 C.3        1 UNL1     -0.0564
     53 O         -2.103381   0.940755   -0.639998 O.3        1 UNL1     -0.4608
     54 C         -2.082307   -0.384876   -0.293313 C.2        1 UNL1     0.3042
     55 O         -2.999568   -1.043911   0.194684 O.2        1 UNL1     -0.2512
     56 C         -0.786548   -1.071322   -0.619678 C.3        1 UNL1     0.0332
     57 C         -2.031955   2.494759   2.724977 C.3        1 UNL1     -0.0567
     58 C         2.130021   6.979215   -1.653265 C.3        1 UNL1     0.0210
     59 C         -2.271028   5.246911   1.897717 C.3        1 UNL1     0.0372
     60 C         0.637153   5.198881   0.11421 C.2        1 UNL1     -0.0208
     61 C         1.408   5.730078   1.064141 C.2        1 UNL1     0.0882
     62 H         4.598029   2.745667   1.016059 H        1 UNL1     0.0365
     63 H         6.367648   3.52881   0.363862 H        1 UNL1     0.0576
     64 H         8.473359   1.319092   -0.060288 H        1 UNL1     0.0615
     65 H         8.482267   4.396469   -0.59651 H        1 UNL1     0.0622
     66 H         -1.396101   5.30091   -0.304844 H        1 UNL1     0.0645
     67 H         -1.653037   3.479979   -1.362388 H        1 UNL1     0.0362
     68 H         -2.619031   2.544842   0.372071 H        1 UNL1     0.0741
     69 H         -1.504097   0.708338   1.924669 H        1 UNL1     0.0359
     70 H         0.462358   0.998598   2.948542 H        1 UNL1     0.0600
     71 H         1.581447   -0.300882   1.620498 H        1 UNL1     0.0348
     72 H         3.149206   1.562784   1.650952 H        1 UNL1     0.0602
     73 H         0.919768   5.280759   -0.905924 H        1 UNL1     0.0628
     74 H         1.21903   5.63883   2.134282 H        1 UNL1     0.1022
     75 H         11.913854   2.303535   -1.378617 H        1 UNL1     0.0279
     76 H         11.213159   2.204262   -2.944653 H        1 UNL1     0.0279
     77 H         12.206486   3.626693   -2.429592 H        1 UNL1     0.0279
     78 H         9.830662   4.198828   -4.013456 H        1 UNL1     0.1553
     79 H         8.490786   2.771529   -3.70723 H        1 UNL1     0.1484
     80 H         4.801667   2.146283   -4.369775 H        1 UNL1     0.0317
     81 H         5.622801   3.615324   -4.877303 H        1 UNL1     0.0317
     82 H         7.667603   2.316404   -5.529449 H        1 UNL1     0.0428
     83 H         6.225816   1.767627   -6.355159 H        1 UNL1     0.0428
     84 H         7.498394   -0.535615   -3.011694 H        1 UNL1     0.0428
     85 H         8.482491   0.823696   -3.427565 H        1 UNL1     0.0428
     86 H         6.871361   1.127281   -1.546888 H        1 UNL1     0.0317
     87 H         5.514358   0.810654   -2.527011 H        1 UNL1     0.0317
     88 H         8.366297   0.033508   -6.182576 H        1 UNL1     0.0429
     89 H         7.847202   -1.348973   -5.215352 H        1 UNL1     0.0429
     90 H         6.671086   -0.147362   -7.708512 H        1 UNL1     0.0308
     91 H         6.755171   -2.945346   -6.459164 H        1 UNL1     0.0233
     92 H         5.840478   -2.574757   -7.942908 H        1 UNL1     0.0233
     93 H         7.582541   -2.404382   -7.914802 H        1 UNL1     0.0233
     94 H         4.36699   -0.828386   -7.176927 H        1 UNL1     0.0233
     95 H         4.852084   -1.122833   -5.499931 H        1 UNL1     0.0233
     96 H         4.92555   0.523258   -6.169989 H        1 UNL1     0.0233
     97 H         4.153016   10.510059   -1.523051 H        1 UNL1     0.0280
     98 H         5.184237   10.666118   -0.126836 H        1 UNL1     0.0280
     99 H         5.816047   11.083476   -1.74744 H        1 UNL1     0.0280
     100 H         8.55829   9.391646   -2.43165 H        1 UNL1     0.2922
     101 H         4.693113   2.257137   3.19947 H        1 UNL1     0.0236
     102 H         6.265261   1.402078   2.947904 H        1 UNL1     0.0236
     103 H         4.756789   0.541883   2.939326 H        1 UNL1     0.0236
     104 H         3.271757   -0.729044   1.821225 H        1 UNL1     0.2098
     105 H         0.927041   1.114649   -0.953384 H        1 UNL1     0.0234
     106 H         1.413507   -0.587749   -0.716135 H        1 UNL1     0.0234
     107 H         0.0   -0.0   0.0 H        1 UNL1     0.0234
     108 H         2.020879   2.728045   2.292542 H        1 UNL1     0.2098
     109 H         0.437607   3.742894   -2.299317 H        1 UNL1     0.0234
     110 H         1.254497   2.814019   -1.002134 H        1 UNL1     0.0234
     111 H         0.177088   2.022792   -2.098488 H        1 UNL1     0.0234
     112 H         -0.986183   -2.04324   -1.081054 H        1 UNL1     0.0342
     113 H         -0.148404   -0.460314   -1.256298 H        1 UNL1     0.0342
     114 H         -0.246333   -1.249359   0.320341 H        1 UNL1     0.0342
     115 H         -2.18423   1.924571   3.651738 H        1 UNL1     0.0234
     116 H         -1.627983   3.470424   3.002345 H        1 UNL1     0.0234
     117 H         -3.073592   2.640014   2.39056 H        1 UNL1     0.0234
     118 H         1.05669   7.036812   -1.400977 H        1 UNL1     0.0309
     119 H         2.395639   7.832488   -2.285384 H        1 UNL1     0.0309
     120 H         2.191138   6.094613   -2.296576 H        1 UNL1     0.0309
     121 H         -1.994513   6.204062   2.33903 H        1 UNL1     0.0524
     122 H         -2.890676   5.457244   1.010117 H        1 UNL1     0.0524
     123 H         -2.853892   4.662812   2.604252 H        1 UNL1     0.0524
@<TRIPOS>BOND
     1     1     2    1
     2     1    42    1
     3     2     3    2
     4     3     4    1
     5     4     5    2
     6     5     7    1
     7     6    75    1
     8     6    76    1
     9     6    77    1
    10     7     9   am
    11     9    10    1
    12    10    11    2
    13    10    43    1
    14    11    14    1
    15    11    15    1
    16    12    13   ar
    17    12    27   ar
    18    12    43    1
    19    13    14    1
    20    13    30   ar
    21    14    17    2
    22    15    16    1
    23    16    17    1
    24    16    18    1
    25    16    22    1
    26    18    19    1
    27    19    20    1
    28    20    21    1
    29    21    22    1
    30    23    24    1
    31    23    88    1
    32    23    89    1
    33    24    25    1
    34    24    26    1
    35    24    90    1
    36    25    91    1
    37    25    92    1
    38    25    93    1
    39    26    94    1
    40    26    95    1
    41    26    96    1
    42    27    28   ar
    43    28    29   ar
    44    29    30   ar
    45    29    31    1
    46    30    33    1
    47    31    32    1
    48    32    33    1
    49    32    35    1
    50    34    97    1
    51    34    98    1
    52    34    99    1
    53    35    61    1
    54    36    37    1
    55    36    60    1
    56    37    38    1
    57    38    39    1
    58    39    40    1
    59    40    41    1
    60    41    42    1
    61    45   100    1
    62    47   101    1
    63    47   102    1
    64    47   103    1
    65    48   104    1
    66    49   105    1
    67    49   106    1
    68    49   107    1
    69    50   108    1
    70    51    59    1
    71    52   109    1
    72    52   110    1
    73    52   111    1
    74    53    54    1
    75    54    55    2
    76    54    56    1
    77    56   112    1
    78    56   113    1
    79    56   114    1
    80    57   115    1
    81    57   116    1
    82    57   117    1
    83    58   118    1
    84    58   119    1
    85    58   120    1
    86    59   121    1
    87    59   122    1
    88    59   123    1
    89    60    61    2
    90     1    47    1
    91     1    62    1
    92     2    63    1
    93     3    64    1
    94     4    65    1
    95     5     6    1
    96     7     8    2
    97     9    78    1
    98    15    79    1
    99    18    80    1
   100    18    81    1
   101    19    82    1
   102    19    83    1
   103    20    23    1
   104    21    84    1
   105    21    85    1
   106    22    86    1
   107    22    87    1
   108    27    45    1
   109    28    34    1
   110    32    58    1
   111    33    46    2
   112    36    51    1
   113    36    66    1
   114    37    52    1
   115    37    67    1
   116    38    53    1
   117    38    68    1
   118    42    48    1
   119    42    72    1
   120    43    44    2
   121    60    73    1
   122    61    74    1
   123    39    69    1
   124    39    57    1
   125    40    70    1
   126    40    50    1
   127    41    71    1
   128    41    49    1
