@<TRIPOS>MOLECULE
*****
 123 128 0 0 0
SMALL
GASTEIGER

@<TRIPOS>ATOM
     1 C         3.610388   0.465986   -4.093863 C.3        1 UNL1     0.0009
     2 C         5.152643   -0.215848   -4.86431 C.2        1 UNL1     -0.0787
     3 C         6.578856   -0.137968   -5.100732 C.2        1 UNL1     -0.0649
     4 C         7.565208   -1.26283   -5.893293 C.2        1 UNL1     -0.0542
     5 C         8.894886   -1.717232   -6.073723 C.2        1 UNL1     0.0115
     6 C         10.385524   -1.386942   -5.786965 C.3        1 UNL1     -0.0348
     7 C         9.139345   -3.179458   -6.689453 C.2        1 UNL1     0.2441
     8 O         9.464065   -3.365249   -7.85417 O.2        1 UNL1     -0.2702
     9 N         9.211089   -4.213803   -5.740172 N.am        1 UNL1     -0.2772
     10 C         7.955857   -4.712637   -5.477726 C.2        1 UNL1     0.1049
     11 C         7.235761   -4.042488   -4.596486 C.2        1 UNL1     0.0801
     12 C         5.880137   -5.548954   -6.595444 C.ar        1 UNL1     0.0753
     13 C         5.156834   -4.64506   -5.75377 C.ar        1 UNL1     0.0305
     14 C         5.800899   -3.958908   -4.635993 C.2        1 UNL1     0.0924
     15 N         7.598832   -3.064599   -3.748877 N.pl3        1 UNL1     -0.3170
     16 C         6.4806   -2.79457   -2.884646 C.3        1 UNL1     0.1275
     17 N         5.270445   -3.173279   -3.703076 N.2        1 UNL1     -0.2557
     18 C         6.545026   -3.796134   -1.735551 C.3        1 UNL1     0.0016
     19 C         7.902604   -3.676387   -1.061583 C.3        1 UNL1     0.0026
     20 N         8.065916   -2.312511   -0.577642 N.3        1 UNL1     -0.3018
     21 C         7.957879   -1.272068   -1.602422 C.3        1 UNL1     0.0026
     22 C         6.585027   -1.408025   -2.263247 C.3        1 UNL1     0.0016
     23 C         9.183096   -2.16767   0.334265 C.3        1 UNL1     0.0012
     24 C         9.681131   -3.545259   0.798988 C.3        1 UNL1     -0.0339
     25 C         10.190071   -3.499418   2.249138 C.3        1 UNL1     -0.0615
     26 C         8.584795   -4.58167   0.623828 C.3        1 UNL1     -0.0615
     27 C         5.234013   -6.290385   -7.581812 C.ar        1 UNL1     0.1347
     28 C         3.867646   -6.242405   -7.793446 C.ar        1 UNL1     0.0342
     29 C         3.18319   -5.309421   -6.985841 C.ar        1 UNL1     0.1435
     30 C         3.822632   -4.533439   -6.018274 C.ar        1 UNL1     0.0774
     31 O         1.835009   -5.22391   -6.995861 O.3        1 UNL1     -0.4436
     32 C         1.504753   -4.557541   -5.767953 C.3        1 UNL1     0.3143
     33 C         2.753616   -3.788993   -5.385999 C.2        1 UNL1     0.2504
     34 C         3.075105   -7.186207   -8.654385 C.3        1 UNL1     -0.0327
     35 O         0.493553   -3.587714   -6.068222 O.2        1 UNL1     -0.4528
     36 C         -1.599067   -3.256927   -2.918681 C.3        1 UNL1     0.0854
     37 C         -1.146852   -2.86993   -1.458113 C.3        1 UNL1     0.0236
     38 C         -1.929041   -1.626054   -0.815699 C.3        1 UNL1     0.1131
     39 C         -2.056032   -0.274379   -1.627559 C.3        1 UNL1     0.0200
     40 C         -0.741694   0.346345   -2.445885 C.3        1 UNL1     0.0661
     41 C         0.813136   0.569028   -1.805164 C.3        1 UNL1     0.0091
     42 C         2.457908   0.470565   -2.611658 C.3        1 UNL1     0.0661
     43 C         7.326861   -5.737579   -6.324019 C.2        1 UNL1     0.2131
     44 O         7.955186   -6.719583   -6.675604 O.2        1 UNL1     -0.2851
     45 O         6.018091   -7.112906   -8.388112 O.3        1 UNL1     -0.5056
     46 O         2.84381   -2.777402   -4.726909 O.2        1 UNL1     -0.2836
     47 C         3.127422   1.719336   -4.872219 C.3        1 UNL1     -0.0566
     48 O         2.947643   1.742035   -2.026302 O.3        1 UNL1     -0.3909
     49 C         0.915899   -0.187534   -0.49958 C.3        1 UNL1     -0.0577
     50 O         -0.654732   -0.203679   -3.744975 O.3        1 UNL1     -0.3910
     51 O         -2.498735   -2.367677   -3.540985 O.3        1 UNL1     -0.3753
     52 C         0.387537   -3.085304   -1.247839 C.3        1 UNL1     -0.0564
     53 O         -1.740152   -1.499129   0.667722 O.3        1 UNL1     -0.4608
     54 C         -1.621207   -0.320195   1.356123 C.2        1 UNL1     0.3042
     55 O         -0.590201   0.186986   1.796162 O.2        1 UNL1     -0.2512
     56 C         -2.919879   0.418502   1.512619 C.3        1 UNL1     0.0332
     57 C         -3.463444   -0.298353   -2.387027 C.3        1 UNL1     -0.0567
     58 C         1.262019   -5.667896   -4.719277 C.3        1 UNL1     0.0210
     59 C         -3.833526   -2.85591   -3.666792 C.3        1 UNL1     0.0372
     60 C         -0.487259   -3.486176   -3.881223 C.2        1 UNL1     -0.0208
     61 C         -0.333702   -3.071138   -5.13936 C.2        1 UNL1     0.0882
     62 H         3.053632   -0.387667   -4.498845 H        1 UNL1     0.0365
     63 H         4.742826   -1.052247   -5.43436 H        1 UNL1     0.0576
     64 H         7.198233   0.622085   -4.619277 H        1 UNL1     0.0615
     65 H         6.85446   -1.921199   -6.400115 H        1 UNL1     0.0622
     66 H         -2.102918   -4.226959   -2.803715 H        1 UNL1     0.0645
     67 H         -1.511827   -3.704469   -0.834496 H        1 UNL1     0.0362
     68 H         -2.946569   -2.04464   -0.784948 H        1 UNL1     0.0741
     69 H         -2.30512   0.52265   -0.939729 H        1 UNL1     0.0359
     70 H         -1.090598   1.384197   -2.607717 H        1 UNL1     0.0600
     71 H         0.726043   1.612843   -1.444855 H        1 UNL1     0.0348
     72 H         1.729653   0.608868   -3.423958 H        1 UNL1     0.0602
     73 H         0.195973   -4.184609   -3.465728 H        1 UNL1     0.0628
     74 H         -0.955211   -2.314396   -5.619262 H        1 UNL1     0.1022
     75 H         10.607589   -0.322939   -6.043128 H        1 UNL1     0.0279
     76 H         10.705403   -1.449738   -4.749274 H        1 UNL1     0.0279
     77 H         11.075749   -1.919899   -6.457223 H        1 UNL1     0.0279
     78 H         9.585263   -3.850484   -4.86606 H        1 UNL1     0.1553
     79 H         8.548897   -2.883735   -3.481299 H        1 UNL1     0.1484
     80 H         5.729248   -3.587166   -1.032981 H        1 UNL1     0.0317
     81 H         6.392162   -4.81823   -2.098322 H        1 UNL1     0.0317
     82 H         8.7208   -3.955732   -1.741608 H        1 UNL1     0.0428
     83 H         7.927786   -4.400396   -0.246581 H        1 UNL1     0.0428
     84 H         8.004439   -0.254831   -1.201333 H        1 UNL1     0.0428
     85 H         8.790588   -1.315081   -2.318007 H        1 UNL1     0.0428
     86 H         6.488902   -0.555138   -2.90926 H        1 UNL1     0.0317
     87 H         5.794065   -1.253295   -1.519249 H        1 UNL1     0.0317
     88 H         9.9982   -1.663852   -0.201522 H        1 UNL1     0.0429
     89 H         8.919715   -1.532521   1.189829 H        1 UNL1     0.0429
     90 H         10.504188   -3.867304   0.150084 H        1 UNL1     0.0308
     91 H         9.493289   -2.960791   2.898351 H        1 UNL1     0.0233
     92 H         10.336114   -4.509363   2.639383 H        1 UNL1     0.0233
     93 H         11.16007   -2.994969   2.335558 H        1 UNL1     0.0233
     94 H         8.766392   -5.43845   1.281694 H        1 UNL1     0.0233
     95 H         7.61637   -4.150101   0.891902 H        1 UNL1     0.0233
     96 H         8.537341   -4.941928   -0.407642 H        1 UNL1     0.0233
     97 H         2.301396   -7.699352   -8.091103 H        1 UNL1     0.0280
     98 H         2.557442   -6.665926   -9.470834 H        1 UNL1     0.0280
     99 H         3.748076   -7.944521   -9.087013 H        1 UNL1     0.0280
     100 H         6.765749   -6.688364   -8.770727 H        1 UNL1     0.2922
     101 H         2.264365   1.461262   -5.485559 H        1 UNL1     0.0236
     102 H         3.916856   2.192307   -5.455381 H        1 UNL1     0.0236
     103 H         2.763862   2.511661   -4.196765 H        1 UNL1     0.0236
     104 H         3.575933   1.515607   -1.312893 H        1 UNL1     0.2098
     105 H         1.019674   -1.263907   -0.611222 H        1 UNL1     0.0234
     106 H         1.667948   0.194949   0.190388 H        1 UNL1     0.0234
     107 H         0.0   0.0   0.0 H        1 UNL1     0.0234
     108 H         0.234263   0.00676   -4.090189 H        1 UNL1     0.2098
     109 H         0.684133   -4.133543   -1.392532 H        1 UNL1     0.0234
     110 H         1.003773   -2.439217   -1.882322 H        1 UNL1     0.0234
     111 H         0.696133   -2.827424   -0.225972 H        1 UNL1     0.0234
     112 H         -2.751971   1.356618   2.050291 H        1 UNL1     0.0342
     113 H         -3.406545   0.598592   0.555244 H        1 UNL1     0.0342
     114 H         -3.595868   -0.200537   2.11842 H        1 UNL1     0.0342
     115 H         -3.89742   0.70722   -2.474634 H        1 UNL1     0.0234
     116 H         -3.418983   -0.725396   -3.390873 H        1 UNL1     0.0234
     117 H         -4.256144   -0.824578   -1.827871 H        1 UNL1     0.0234
     118 H         0.198956   -5.739596   -4.429862 H        1 UNL1     0.0309
     119 H         1.611125   -6.652201   -5.047107 H        1 UNL1     0.0309
     120 H         1.769397   -5.467106   -3.769352 H        1 UNL1     0.0309
     121 H         -4.291806   -2.34797   -4.514928 H        1 UNL1     0.0524
     122 H         -3.865269   -3.938967   -3.871771 H        1 UNL1     0.0524
     123 H         -4.395327   -2.652145   -2.759625 H        1 UNL1     0.0524
@<TRIPOS>BOND
     1     1     2    1
     2     1    42    1
     3     2     3    2
     4     3     4    1
     5     4     5    2
     6     5     7    1
     7     6    75    1
     8     6    76    1
     9     6    77    1
    10     7     9   am
    11     9    10    1
    12    10    11    2
    13    10    43    1
    14    11    14    1
    15    11    15    1
    16    12    13   ar
    17    12    27   ar
    18    12    43    1
    19    13    14    1
    20    13    30   ar
    21    14    17    2
    22    15    16    1
    23    16    17    1
    24    16    18    1
    25    16    22    1
    26    18    19    1
    27    19    20    1
    28    20    21    1
    29    21    22    1
    30    23    24    1
    31    23    88    1
    32    23    89    1
    33    24    25    1
    34    24    26    1
    35    24    90    1
    36    25    91    1
    37    25    92    1
    38    25    93    1
    39    26    94    1
    40    26    95    1
    41    26    96    1
    42    27    28   ar
    43    28    29   ar
    44    29    30   ar
    45    29    31    1
    46    30    33    1
    47    31    32    1
    48    32    33    1
    49    32    35    1
    50    34    97    1
    51    34    98    1
    52    34    99    1
    53    35    61    1
    54    36    37    1
    55    36    60    1
    56    37    38    1
    57    38    39    1
    58    39    40    1
    59    40    41    1
    60    41    42    1
    61    45   100    1
    62    47   101    1
    63    47   102    1
    64    47   103    1
    65    48   104    1
    66    49   105    1
    67    49   106    1
    68    49   107    1
    69    50   108    1
    70    51    59    1
    71    52   109    1
    72    52   110    1
    73    52   111    1
    74    53    54    1
    75    54    55    2
    76    54    56    1
    77    56   112    1
    78    56   113    1
    79    56   114    1
    80    57   115    1
    81    57   116    1
    82    57   117    1
    83    58   118    1
    84    58   119    1
    85    58   120    1
    86    59   121    1
    87    59   122    1
    88    59   123    1
    89    60    61    2
    90     1    47    1
    91     1    62    1
    92     2    63    1
    93     3    64    1
    94     4    65    1
    95     5     6    1
    96     7     8    2
    97     9    78    1
    98    15    79    1
    99    18    80    1
   100    18    81    1
   101    19    82    1
   102    19    83    1
   103    20    23    1
   104    21    84    1
   105    21    85    1
   106    22    86    1
   107    22    87    1
   108    27    45    1
   109    28    34    1
   110    32    58    1
   111    33    46    2
   112    36    51    1
   113    36    66    1
   114    37    52    1
   115    37    67    1
   116    38    53    1
   117    38    68    1
   118    42    48    1
   119    42    72    1
   120    43    44    2
   121    60    73    1
   122    61    74    1
   123    39    69    1
   124    39    57    1
   125    40    70    1
   126    40    50    1
   127    41    71    1
   128    41    49    1
