@<TRIPOS>MOLECULE
*****
 123 128 0 0 0
SMALL
GASTEIGER

@<TRIPOS>ATOM
     1 C         -3.379984   -0.328271   2.348033 C.3        1 UNL1     0.0009
     2 C         -4.477482   -1.806151   2.568042 C.2        1 UNL1     -0.0787
     3 C         -5.656345   -2.561286   2.199124 C.2        1 UNL1     -0.0649
     4 C         -6.126711   -4.091369   2.750449 C.2        1 UNL1     -0.0542
     5 C         -6.929436   -5.22687   2.479621 C.2        1 UNL1     0.0115
     6 C         -8.056951   -5.779425   1.564898 C.3        1 UNL1     -0.0348
     7 C         -6.605797   -6.60532   3.236009 C.2        1 UNL1     0.2441
     8 O         -7.258085   -7.010953   4.188116 O.2        1 UNL1     -0.2702
     9 N         -5.690874   -7.440814   2.571918 N.am        1 UNL1     -0.2772
     10 C         -4.401774   -7.127207   2.936875 C.2        1 UNL1     0.1049
     11 C         -3.844613   -6.116499   2.294798 C.2        1 UNL1     0.0801
     12 C         -2.950543   -6.710413   4.931254 C.ar        1 UNL1     0.0753
     13 C         -2.532153   -5.50782   4.277549 C.ar        1 UNL1     0.0305
     14 C         -2.866936   -5.239991   2.880681 C.2        1 UNL1     0.0924
     15 N         -4.24964   -5.465951   1.190594 N.pl3        1 UNL1     -0.3170
     16 C         -3.200054   -4.560886   0.803967 C.3        1 UNL1     0.1275
     17 N         -2.485337   -4.238201   2.093455 N.2        1 UNL1     -0.2557
     18 C         -2.208757   -5.353363   -0.042799 C.3        1 UNL1     0.0016
     19 C         -2.957252   -5.981069   -1.207844 C.3        1 UNL1     0.0026
     20 N         -3.582569   -4.921641   -1.987343 N.3        1 UNL1     -0.3018
     21 C         -4.507831   -4.065133   -1.242594 C.3        1 UNL1     0.0026
     22 C         -3.733887   -3.441367   -0.079915 C.3        1 UNL1     0.0016
     23 C         -4.064926   -5.378803   -3.275357 C.3        1 UNL1     0.0012
     24 C         -3.102923   -6.417613   -3.873001 C.3        1 UNL1     -0.0339
     25 C         -3.573094   -7.85232   -3.582119 C.3        1 UNL1     -0.0615
     26 C         -2.935276   -6.175577   -5.362998 C.3        1 UNL1     -0.0615
     27 C         -2.5269   -7.014762   6.222771 C.ar        1 UNL1     0.1347
     28 C         -1.65617   -6.216481   6.942928 C.ar        1 UNL1     0.0342
     29 C         -1.296374   -5.013901   6.298325 C.ar        1 UNL1     0.1435
     30 C         -1.741763   -4.678455   5.019136 C.ar        1 UNL1     0.0774
     31 O         -0.369461   -4.182983   6.823123 O.3        1 UNL1     -0.4436
     32 C         0.060695   -3.374829   5.717354 C.3        1 UNL1     0.3143
     33 C         -1.081294   -3.424425   4.72256 C.2        1 UNL1     0.2504
     34 C         -0.963975   -6.597303   8.221967 C.3        1 UNL1     -0.0327
     35 O         0.147528   -2.023428   6.185785 O.2        1 UNL1     -0.4528
     36 C         2.88189   -0.38216   4.127244 C.3        1 UNL1     0.0854
     37 C         2.995911   -0.231888   2.561377 C.3        1 UNL1     0.0236
     38 C         3.189035   1.271972   2.039022 C.3        1 UNL1     0.1131
     39 C         2.207144   2.40808   2.536432 C.3        1 UNL1     0.0200
     40 C         0.564843   2.128346   2.620312 C.3        1 UNL1     0.0661
     41 C         -0.395668   1.472043   1.385689 C.3        1 UNL1     0.0091
     42 C         -1.891824   0.414399   1.476837 C.3        1 UNL1     0.0661
     43 C         -3.778661   -7.666283   4.154858 C.2        1 UNL1     0.2131
     44 O         -3.870122   -8.850374   4.423746 O.2        1 UNL1     -0.2851
     45 O         -3.016686   -8.182568   6.803957 O.3        1 UNL1     -0.5056
     46 O         -1.389889   -2.603306   3.888063 O.2        1 UNL1     -0.2836
     47 C         -4.037211   0.929853   2.976648 C.3        1 UNL1     -0.0566
     48 O         -2.659858   1.21951   0.496512 O.3        1 UNL1     -0.3909
     49 C         0.507554   0.868939   0.333097 C.3        1 UNL1     -0.0577
     50 O         0.217908   1.549085   3.862011 O.3        1 UNL1     -0.3910
     51 O         2.788059   0.820762   4.856355 O.3        1 UNL1     -0.3753
     52 C         2.09138   -1.262912   1.810536 C.3        1 UNL1     -0.0564
     53 O         3.641417   1.358163   0.610649 O.3        1 UNL1     -0.4608
     54 C         3.236647   2.302687   -0.295973 C.2        1 UNL1     0.3042
     55 O         2.114922   2.794904   -0.411276 O.2        1 UNL1     -0.2512
     56 C         4.342259   2.794615   -1.18611 C.3        1 UNL1     0.0332
     57 C         2.903269   3.137673   3.777914 C.3        1 UNL1     -0.0567
     58 C         1.287577   -4.08944   5.104475 C.3        1 UNL1     0.0210
     59 C         3.953391   1.159192   5.60691 C.3        1 UNL1     0.0372
     60 C         1.771899   -1.255882   4.595955 C.2        1 UNL1     -0.0208
     61 C         0.88458   -1.075816   5.575234 C.2        1 UNL1     0.0882
     62 H         -2.704515   -0.740838   3.107139 H        1 UNL1     0.0365
     63 H         -3.990604   -2.297298   3.413142 H        1 UNL1     0.0576
     64 H         -6.293849   -2.256574   1.36615 H        1 UNL1     0.0615
     65 H         -5.488008   -4.262297   3.621267 H        1 UNL1     0.0622
     66 H         3.810614   -0.889441   4.424201 H        1 UNL1     0.0645
     67 H         3.977444   -0.675736   2.320228 H        1 UNL1     0.0362
     68 H         4.161012   1.50365   2.500657 H        1 UNL1     0.0741
     69 H         2.270472   3.245815   1.854818 H        1 UNL1     0.0359
     70 H         0.197221   3.170092   2.688728 H        1 UNL1     0.0600
     71 H         -0.725074   2.401986   0.882047 H        1 UNL1     0.0348
     72 H         -1.796825   0.891021   2.463306 H        1 UNL1     0.0602
     73 H         1.830115   -2.191841   4.098119 H        1 UNL1     0.0628
     74 H         0.72233   -0.130536   6.09423 H        1 UNL1     0.1022
     75 H         -8.497541   -4.960025   0.947243 H        1 UNL1     0.0279
     76 H         -7.758752   -6.505743   0.812165 H        1 UNL1     0.0279
     77 H         -8.935763   -6.120145   2.131732 H        1 UNL1     0.0279
     78 H         -5.767272   -7.3009   1.5666 H        1 UNL1     0.1553
     79 H         -4.915066   -5.837481   0.537825 H        1 UNL1     0.1484
     80 H         -1.417494   -4.678945   -0.391836 H        1 UNL1     0.0317
     81 H         -1.718111   -6.130104   0.553516 H        1 UNL1     0.0317
     82 H         -3.703082   -6.713448   -0.865394 H        1 UNL1     0.0428
     83 H         -2.232097   -6.54279   -1.79748 H        1 UNL1     0.0428
     84 H         -4.901954   -3.230097   -1.830125 H        1 UNL1     0.0428
     85 H         -5.404863   -4.613265   -0.922903 H        1 UNL1     0.0428
     86 H         -4.40103   -2.723434   0.359948 H        1 UNL1     0.0317
     87 H         -2.913592   -2.823142   -0.464635 H        1 UNL1     0.0317
     88 H         -5.042974   -5.854205   -3.124659 H        1 UNL1     0.0429
     89 H         -4.218531   -4.538618   -3.964755 H        1 UNL1     0.0429
     90 H         -2.107853   -6.280378   -3.433436 H        1 UNL1     0.0308
     91 H         -2.918404   -8.58934   -4.056762 H        1 UNL1     0.0233
     92 H         -3.602019   -8.038643   -2.505989 H        1 UNL1     0.0233
     93 H         -4.587619   -8.042557   -3.952771 H        1 UNL1     0.0233
     94 H         -3.816257   -5.662682   -5.763809 H        1 UNL1     0.0233
     95 H         -2.064074   -5.539376   -5.542491 H        1 UNL1     0.0233
     96 H         -2.804665   -7.114869   -5.907643 H        1 UNL1     0.0233
     97 H         -0.242421   -5.847946   8.533503 H        1 UNL1     0.0280
     98 H         -1.667793   -6.702637   9.057911 H        1 UNL1     0.0280
     99 H         -0.43195   -7.552724   8.083346 H        1 UNL1     0.0280
     100 H         -3.88228   -8.425213   6.525581 H        1 UNL1     0.2922
     101 H         -3.299462   1.727716   3.059092 H        1 UNL1     0.0236
     102 H         -4.528272   0.727002   3.927802 H        1 UNL1     0.0236
     103 H         -4.830436   1.347432   2.334297 H        1 UNL1     0.0236
     104 H         -2.054033   1.891866   0.127887 H        1 UNL1     0.2098
     105 H         0.678291   1.506278   -0.530882 H        1 UNL1     0.0234
     106 H         1.454409   0.484191   0.711727 H        1 UNL1     0.0234
     107 H         0.0   -0.0   0.0 H        1 UNL1     0.0234
     108 H         0.147235   2.27523   4.511232 H        1 UNL1     0.2098
     109 H         2.366766   -2.301933   2.039251 H        1 UNL1     0.0234
     110 H         1.02268   -1.116704   2.000921 H        1 UNL1     0.0234
     111 H         2.183605   -1.16398   0.720741 H        1 UNL1     0.0234
     112 H         3.95113   3.534394   -1.891156 H        1 UNL1     0.0342
     113 H         5.176663   3.200845   -0.616381 H        1 UNL1     0.0342
     114 H         4.719772   1.9421   -1.767373 H        1 UNL1     0.0342
     115 H         2.388909   2.91551   4.723041 H        1 UNL1     0.0234
     116 H         3.956592   2.882181   3.909381 H        1 UNL1     0.0234
     117 H         2.821301   4.237711   3.744158 H        1 UNL1     0.0234
     118 H         2.234194   -3.583713   5.363632 H        1 UNL1     0.0309
     119 H         1.356017   -5.144574   5.387692 H        1 UNL1     0.0309
     120 H         1.282058   -4.069214   4.009182 H        1 UNL1     0.0309
     121 H         4.202691   2.195269   5.379424 H        1 UNL1     0.0524
     122 H         3.785438   1.089275   6.69454 H        1 UNL1     0.0524
     123 H         4.778269   0.506763   5.334868 H        1 UNL1     0.0524
@<TRIPOS>BOND
     1     1     2    1
     2     1    42    1
     3     2     3    2
     4     3     4    1
     5     4     5    2
     6     5     7    1
     7     6    75    1
     8     6    76    1
     9     6    77    1
    10     7     9   am
    11     9    10    1
    12    10    11    2
    13    10    43    1
    14    11    14    1
    15    11    15    1
    16    12    13   ar
    17    12    27   ar
    18    12    43    1
    19    13    14    1
    20    13    30   ar
    21    14    17    2
    22    15    16    1
    23    16    17    1
    24    16    18    1
    25    16    22    1
    26    18    19    1
    27    19    20    1
    28    20    21    1
    29    21    22    1
    30    23    24    1
    31    23    88    1
    32    23    89    1
    33    24    25    1
    34    24    26    1
    35    24    90    1
    36    25    91    1
    37    25    92    1
    38    25    93    1
    39    26    94    1
    40    26    95    1
    41    26    96    1
    42    27    28   ar
    43    28    29   ar
    44    29    30   ar
    45    29    31    1
    46    30    33    1
    47    31    32    1
    48    32    33    1
    49    32    35    1
    50    34    97    1
    51    34    98    1
    52    34    99    1
    53    35    61    1
    54    36    37    1
    55    36    60    1
    56    37    38    1
    57    38    39    1
    58    39    40    1
    59    40    41    1
    60    41    42    1
    61    45   100    1
    62    47   101    1
    63    47   102    1
    64    47   103    1
    65    48   104    1
    66    49   105    1
    67    49   106    1
    68    49   107    1
    69    50   108    1
    70    51    59    1
    71    52   109    1
    72    52   110    1
    73    52   111    1
    74    53    54    1
    75    54    55    2
    76    54    56    1
    77    56   112    1
    78    56   113    1
    79    56   114    1
    80    57   115    1
    81    57   116    1
    82    57   117    1
    83    58   118    1
    84    58   119    1
    85    58   120    1
    86    59   121    1
    87    59   122    1
    88    59   123    1
    89    60    61    2
    90     1    47    1
    91     1    62    1
    92     2    63    1
    93     3    64    1
    94     4    65    1
    95     5     6    1
    96     7     8    2
    97     9    78    1
    98    15    79    1
    99    18    80    1
   100    18    81    1
   101    19    82    1
   102    19    83    1
   103    20    23    1
   104    21    84    1
   105    21    85    1
   106    22    86    1
   107    22    87    1
   108    27    45    1
   109    28    34    1
   110    32    58    1
   111    33    46    2
   112    36    51    1
   113    36    66    1
   114    37    52    1
   115    37    67    1
   116    38    53    1
   117    38    68    1
   118    42    48    1
   119    42    72    1
   120    43    44    2
   121    60    73    1
   122    61    74    1
   123    39    69    1
   124    39    57    1
   125    40    70    1
   126    40    50    1
   127    41    71    1
   128    41    49    1
