@<TRIPOS>MOLECULE
*****
 123 128 0 0 0
SMALL
GASTEIGER

@<TRIPOS>ATOM
     1 C         1.466008   2.769634   4.492128 C.3        1 UNL1     0.0009
     2 C         1.888441   4.427979   5.205206 C.2        1 UNL1     -0.0787
     3 C         2.87488   5.387385   5.655232 C.2        1 UNL1     -0.0649
     4 C         2.619431   6.982212   6.162805 C.2        1 UNL1     -0.0542
     5 C         3.225618   8.245725   6.370535 C.2        1 UNL1     0.0115
     6 C         4.58662   8.99271   6.425391 C.3        1 UNL1     -0.0348
     7 C         2.290774   9.544741   6.495476 C.2        1 UNL1     0.2441
     8 O         2.023534   10.071708   7.566651 O.2        1 UNL1     -0.2702
     9 N         2.013275   10.190002   5.27778 N.am        1 UNL1     -0.2772
     10 C         0.896293   9.643729   4.688493 C.2        1 UNL1     0.1049
     11 C         1.088772   8.542282   3.98565 C.2        1 UNL1     0.0801
     12 C         -1.468684   8.977213   5.157505 C.ar        1 UNL1     0.0753
     13 C         -1.146637   7.713097   4.568518 C.ar        1 UNL1     0.0305
     14 C         0.105415   7.502732   3.845218 C.2        1 UNL1     0.0924
     15 N         2.232538   7.971109   3.570814 N.pl3        1 UNL1     -0.3170
     16 C         1.887798   6.883269   2.694451 C.3        1 UNL1     0.1275
     17 N         0.521576   6.441817   3.15951 N.2        1 UNL1     -0.2557
     18 C         1.691179   7.470729   1.300201 C.3        1 UNL1     0.0016
     19 C         2.954359   8.219007   0.905174 C.3        1 UNL1     0.0026
     20 N         4.075347   7.289569   0.928827 N.3        1 UNL1     -0.3018
     21 C         4.30592   6.62616   2.213776 C.3        1 UNL1     0.0026
     22 C         3.026138   5.876984   2.588993 C.3        1 UNL1     0.0016
     23 C         5.261154   7.819744   0.285848 C.3        1 UNL1     0.0012
     24 C         5.055924   7.90716   -1.234676 C.3        1 UNL1     -0.0339
     25 C         4.610935   9.315496   -1.662031 C.3        1 UNL1     -0.0615
     26 C         6.321333   7.477664   -1.956518 C.3        1 UNL1     -0.0615
     27 C         -2.713208   9.206122   5.739639 C.ar        1 UNL1     0.1347
     28 C         -3.726498   8.264333   5.757742 C.ar        1 UNL1     0.0342
     29 C         -3.369961   7.011236   5.215715 C.ar        1 UNL1     0.1435
     30 C         -2.114972   6.755925   4.661604 C.ar        1 UNL1     0.0774
     31 O         -4.280666   6.025525   5.060803 O.3        1 UNL1     -0.4436
     32 C         -3.698701   5.143537   4.089059 C.3        1 UNL1     0.3143
     33 C         -2.20696   5.398568   4.165734 C.2        1 UNL1     0.2504
     34 C         -5.159467   8.518126   6.134954 C.3        1 UNL1     -0.0327
     35 O         -3.916787   3.803007   4.545864 O.2        1 UNL1     -0.4528
     36 C         -4.165707   1.665595   1.418949 C.3        1 UNL1     0.0854
     37 C         -3.122902   1.485717   0.249452 C.3        1 UNL1     0.0236
     38 C         -2.697673   -0.031369   -0.049502 C.3        1 UNL1     0.1131
     39 C         -2.217607   -0.960608   1.137225 C.3        1 UNL1     0.0200
     40 C         -1.16596   -0.378509   2.293787 C.3        1 UNL1     0.0661
     41 C         0.290595   0.43697   1.992037 C.3        1 UNL1     0.0091
     42 C         1.135771   1.756032   2.946582 C.3        1 UNL1     0.0661
     43 C         -0.465642   10.065464   5.048533 C.2        1 UNL1     0.2131
     44 O         -0.742432   11.247655   5.140982 O.2        1 UNL1     -0.2851
     45 O         -2.92988   10.44889   6.331262 O.3        1 UNL1     -0.5056
     46 O         -1.298752   4.643706   3.898911 O.2        1 UNL1     -0.2836
     47 C         1.642573   1.660815   5.564195 C.3        1 UNL1     -0.0566
     48 O         2.465403   1.101678   2.891669 O.3        1 UNL1     -0.3909
     49 C         0.324652   0.853401   0.538448 C.3        1 UNL1     -0.0577
     50 O         -1.87256   0.264028   3.335702 O.3        1 UNL1     -0.3910
     51 O         -4.460293   0.506492   2.165361 O.3        1 UNL1     -0.3753
     52 C         -2.094118   2.662247   0.201179 C.3        1 UNL1     -0.0564
     53 O         -1.996125   -0.210523   -1.364059 O.3        1 UNL1     -0.4608
     54 C         -1.206648   -1.277463   -1.70508 C.2        1 UNL1     0.3042
     55 O         0.010693   -1.27887   -1.883734 O.2        1 UNL1     -0.2512
     56 C         -1.958185   -2.574447   -1.803759 C.3        1 UNL1     0.0332
     57 C         -3.485072   -1.798662   1.636597 C.3        1 UNL1     -0.0567
     58 C         -4.214619   5.612143   2.708564 C.3        1 UNL1     0.0210
     59 C         -5.751468   0.496613   2.772513 C.3        1 UNL1     0.0372
     60 C         -3.832631   2.7345   2.399594 C.2        1 UNL1     -0.0208
     61 C         -3.880155   2.73017   3.732436 C.2        1 UNL1     0.0882
     62 H         0.406975   3.054099   4.507609 H        1 UNL1     0.0365
     63 H         0.890439   4.82546   5.401347 H        1 UNL1     0.0576
     64 H         3.945683   5.201269   5.546373 H        1 UNL1     0.0615
     65 H         1.538212   7.036943   6.315948 H        1 UNL1     0.0622
     66 H         -5.088027   1.992574   0.918492 H        1 UNL1     0.0645
     67 H         -3.69487   1.736753   -0.660709 H        1 UNL1     0.0362
     68 H         -3.671852   -0.437255   -0.362158 H        1 UNL1     0.0741
     69 H         -1.674623   -1.800181   0.724074 H        1 UNL1     0.0359
     70 H         -0.824511   -1.332767   2.738607 H        1 UNL1     0.0600
     71 H         0.994126   -0.418596   1.989233 H        1 UNL1     0.0348
     72 H         0.435307   1.276969   3.645985 H        1 UNL1     0.0602
     73 H         -3.642037   3.639612   1.878351 H        1 UNL1     0.0628
     74 H         -4.011842   1.835477   4.341879 H        1 UNL1     0.1022
     75 H         5.42894   8.288178   6.222496 H        1 UNL1     0.0279
     76 H         4.744867   9.768104   5.679207 H        1 UNL1     0.0279
     77 H         4.83772   9.345372   7.43647 H        1 UNL1     0.0279
     78 H         2.792758   10.059785   4.636277 H        1 UNL1     0.1553
     79 H         3.109521   8.455796   3.516854 H        1 UNL1     0.1484
     80 H         1.470837   6.657978   0.597598 H        1 UNL1     0.0317
     81 H         0.829359   8.146329   1.278218 H        1 UNL1     0.0317
     82 H         3.140225   9.080166   1.563787 H        1 UNL1     0.0428
     83 H         2.791836   8.631279   -0.091153 H        1 UNL1     0.0428
     84 H         5.101613   5.875328   2.183225 H        1 UNL1     0.0428
     85 H         4.636899   7.334397   2.985897 H        1 UNL1     0.0428
     86 H         3.273631   5.299369   3.460255 H        1 UNL1     0.0317
     87 H         2.803494   5.113765   1.833333 H        1 UNL1     0.0317
     88 H         5.436366   8.831788   0.673614 H        1 UNL1     0.0429
     89 H         6.148834   7.22289   0.531943 H        1 UNL1     0.0429
     90 H         4.282159   7.190485   -1.534471 H        1 UNL1     0.0308
     91 H         5.336138   10.073313   -1.350751 H        1 UNL1     0.0233
     92 H         4.480776   9.36732   -2.745535 H        1 UNL1     0.0233
     93 H         3.646301   9.59949   -1.224236 H        1 UNL1     0.0233
     94 H         6.248248   7.718424   -3.022599 H        1 UNL1     0.0233
     95 H         7.183872   8.01206   -1.548586 H        1 UNL1     0.0233
     96 H         6.492572   6.402231   -1.856068 H        1 UNL1     0.0233
     97 H         -5.772196   7.627715   6.03026 H        1 UNL1     0.0280
     98 H         -5.262397   8.832386   7.181807 H        1 UNL1     0.0280
     99 H         -5.57837   9.304184   5.485547 H        1 UNL1     0.0280
     100 H         -3.693347   10.902792   6.020274 H        1 UNL1     0.2922
     101 H         1.351176   0.696871   5.147595 H        1 UNL1     0.0236
     102 H         1.121048   1.878271   6.495703 H        1 UNL1     0.0236
     103 H         2.698059   1.531776   5.856585 H        1 UNL1     0.0236
     104 H         2.570194   0.577515   3.709742 H        1 UNL1     0.2098
     105 H         -0.341587   1.676093   0.291235 H        1 UNL1     0.0234
     106 H         1.322183   1.043012   0.142334 H        1 UNL1     0.0234
     107 H         0.0   0.0   -0.0 H        1 UNL1     0.0234
     108 H         -2.311428   1.046212   2.949241 H        1 UNL1     0.2098
     109 H         -1.521505   2.752688   1.134799 H        1 UNL1     0.0234
     110 H         -1.404113   2.596099   -0.646914 H        1 UNL1     0.0234
     111 H         -2.593063   3.630774   0.0635 H        1 UNL1     0.0234
     112 H         -1.271084   -3.383388   -2.06994 H        1 UNL1     0.0342
     113 H         -2.497674   -2.805974   -0.886595 H        1 UNL1     0.0342
     114 H         -2.698007   -2.481752   -2.610751 H        1 UNL1     0.0342
     115 H         -3.914064   -2.409647   0.830463 H        1 UNL1     0.0234
     116 H         -3.27456   -2.463933   2.476328 H        1 UNL1     0.0234
     117 H         -4.349192   -1.168757   1.909466 H        1 UNL1     0.0234
     118 H         -5.217468   5.209549   2.482248 H        1 UNL1     0.0309
     119 H         -4.234189   6.701627   2.604423 H        1 UNL1     0.0309
     120 H         -3.600329   5.239469   1.881601 H        1 UNL1     0.0309
     121 H         -5.791187   1.327505   3.476357 H        1 UNL1     0.0524
     122 H         -6.560382   0.644907   2.037867 H        1 UNL1     0.0524
     123 H         -5.915182   -0.443112   3.292328 H        1 UNL1     0.0524
@<TRIPOS>BOND
     1     1     2    1
     2     1    42    1
     3     2     3    2
     4     3     4    1
     5     4     5    2
     6     5     7    1
     7     6    75    1
     8     6    76    1
     9     6    77    1
    10     7     9   am
    11     9    10    1
    12    10    11    2
    13    10    43    1
    14    11    14    1
    15    11    15    1
    16    12    13   ar
    17    12    27   ar
    18    12    43    1
    19    13    14    1
    20    13    30   ar
    21    14    17    2
    22    15    16    1
    23    16    17    1
    24    16    18    1
    25    16    22    1
    26    18    19    1
    27    19    20    1
    28    20    21    1
    29    21    22    1
    30    23    24    1
    31    23    88    1
    32    23    89    1
    33    24    25    1
    34    24    26    1
    35    24    90    1
    36    25    91    1
    37    25    92    1
    38    25    93    1
    39    26    94    1
    40    26    95    1
    41    26    96    1
    42    27    28   ar
    43    28    29   ar
    44    29    30   ar
    45    29    31    1
    46    30    33    1
    47    31    32    1
    48    32    33    1
    49    32    35    1
    50    34    97    1
    51    34    98    1
    52    34    99    1
    53    35    61    1
    54    36    37    1
    55    36    60    1
    56    37    38    1
    57    38    39    1
    58    39    40    1
    59    40    41    1
    60    41    42    1
    61    45   100    1
    62    47   101    1
    63    47   102    1
    64    47   103    1
    65    48   104    1
    66    49   105    1
    67    49   106    1
    68    49   107    1
    69    50   108    1
    70    51    59    1
    71    52   109    1
    72    52   110    1
    73    52   111    1
    74    53    54    1
    75    54    55    2
    76    54    56    1
    77    56   112    1
    78    56   113    1
    79    56   114    1
    80    57   115    1
    81    57   116    1
    82    57   117    1
    83    58   118    1
    84    58   119    1
    85    58   120    1
    86    59   121    1
    87    59   122    1
    88    59   123    1
    89    60    61    2
    90     1    47    1
    91     1    62    1
    92     2    63    1
    93     3    64    1
    94     4    65    1
    95     5     6    1
    96     7     8    2
    97     9    78    1
    98    15    79    1
    99    18    80    1
   100    18    81    1
   101    19    82    1
   102    19    83    1
   103    20    23    1
   104    21    84    1
   105    21    85    1
   106    22    86    1
   107    22    87    1
   108    27    45    1
   109    28    34    1
   110    32    58    1
   111    33    46    2
   112    36    51    1
   113    36    66    1
   114    37    52    1
   115    37    67    1
   116    38    53    1
   117    38    68    1
   118    42    48    1
   119    42    72    1
   120    43    44    2
   121    60    73    1
   122    61    74    1
   123    39    69    1
   124    39    57    1
   125    40    70    1
   126    40    50    1
   127    41    71    1
   128    41    49    1
