@<TRIPOS>MOLECULE
*****
 123 128 0 0 0
SMALL
GASTEIGER

@<TRIPOS>ATOM
     1 C         2.752523   -4.184384   -2.219527 C.3        1 UNL1     0.0009
     2 C         2.710712   -5.98295   -2.667242 C.2        1 UNL1     -0.0787
     3 C         3.08263   -7.354811   -2.39207 C.2        1 UNL1     -0.0649
     4 C         2.583259   -8.75193   -3.207573 C.2        1 UNL1     -0.0542
     5 C         2.447083   -10.159548   -3.123037 C.2        1 UNL1     0.0115
     6 C         2.814984   -11.409013   -2.276392 C.3        1 UNL1     -0.0348
     7 C         1.468126   -10.908486   -4.151494 C.2        1 UNL1     0.2441
     8 O         1.873466   -11.522409   -5.128901 O.2        1 UNL1     -0.2702
     9 N         0.138122   -11.033527   -3.713768 N.am        1 UNL1     -0.2772
     10 C         -0.593278   -9.926284   -4.077621 C.2        1 UNL1     0.1049
     11 C         -0.498236   -8.878052   -3.279875 C.2        1 UNL1     0.0801
     12 C         -1.114137   -8.445316   -6.025125 C.ar        1 UNL1     0.0753
     13 C         -0.79552   -7.34191   -5.170967 C.ar        1 UNL1     0.0305
     14 C         -0.604669   -7.517638   -3.733001 C.2        1 UNL1     0.0924
     15 N         0.03286   -8.774185   -2.04956 N.pl3        1 UNL1     -0.3170
     16 C         -0.27234   -7.460317   -1.548701 C.3        1 UNL1     0.1275
     17 N         -0.404861   -6.605794   -2.785613 N.2        1 UNL1     -0.2557
     18 C         -1.664407   -7.525241   -0.927705 C.3        1 UNL1     0.0016
     19 C         -1.674949   -8.618108   0.129234 C.3        1 UNL1     0.0026
     20 N         -0.667156   -8.30724   1.133596 N.3        1 UNL1     -0.3018
     21 C         0.697217   -8.163411   0.621571 C.3        1 UNL1     0.0026
     22 C         0.685433   -7.057494   -0.43517 C.3        1 UNL1     0.0016
     23 C         -0.795863   -9.114591   2.330368 C.3        1 UNL1     0.0012
     24 C         -1.631623   -8.378505   3.389348 C.3        1 UNL1     -0.0339
     25 C         -3.082407   -8.887106   3.414 C.3        1 UNL1     -0.0615
     26 C         -0.972384   -8.503037   4.751947 C.3        1 UNL1     -0.0615
     27 C         -1.413208   -8.252692   -7.371814 C.ar        1 UNL1     0.1347
     28 C         -1.464092   -7.004389   -7.966121 C.ar        1 UNL1     0.0342
     29 C         -1.099114   -5.93749   -7.117779 C.ar        1 UNL1     0.1435
     30 C         -0.762019   -6.119026   -5.775903 C.ar        1 UNL1     0.0774
     31 O         -1.205161   -4.651377   -7.51737 O.3        1 UNL1     -0.4436
     32 C         -1.215768   -3.892685   -6.298704 C.3        1 UNL1     0.3143
     33 C         -0.53747   -4.779424   -5.274097 C.2        1 UNL1     0.2504
     34 C         -2.018365   -6.699039   -9.329808 C.3        1 UNL1     -0.0327
     35 O         -0.364519   -2.757115   -6.496464 O.2        1 UNL1     -0.4528
     36 C         -1.77956   -0.001251   -4.303074 C.3        1 UNL1     0.0854
     37 C         -2.033432   0.001763   -2.746455 C.3        1 UNL1     0.0236
     38 C         -1.333296   1.204642   -1.949815 C.3        1 UNL1     0.1131
     39 C         0.207149   1.495126   -2.161755 C.3        1 UNL1     0.0200
     40 C         1.304527   0.239869   -2.212033 C.3        1 UNL1     0.0661
     41 C         1.426975   -1.018799   -1.081382 C.3        1 UNL1     0.0091
     42 C         1.93017   -2.769429   -1.29931 C.3        1 UNL1     0.0661
     43 C         -1.203162   -9.792416   -5.408964 C.2        1 UNL1     0.2131
     44 O         -1.824462   -10.717409   -5.899996 O.2        1 UNL1     -0.2851
     45 O         -1.667584   -9.384018   -8.144363 O.3        1 UNL1     -0.5056
     46 O         0.070596   -4.452672   -4.27944 O.2        1 UNL1     -0.2836
     47 C         4.142033   -3.577786   -2.553119 C.3        1 UNL1     -0.0566
     48 O         2.855814   -2.766533   -0.140737 O.3        1 UNL1     -0.3909
     49 C         0.185868   -1.020774   -0.217008 C.3        1 UNL1     -0.0577
     50 O         1.416257   -0.275907   -3.523221 O.3        1 UNL1     -0.3910
     51 O         -0.839003   0.936525   -4.775683 O.3        1 UNL1     -0.3753
     52 C         -2.106424   -1.44832   -2.16604 C.3        1 UNL1     -0.0564
     53 O         -1.863212   1.392165   -0.558287 O.3        1 UNL1     -0.4608
     54 C         -1.116789   1.742359   0.536313 C.2        1 UNL1     0.3042
     55 O         -0.231343   1.082336   1.078709 O.2        1 UNL1     -0.2512
     56 C         -1.419421   3.119321   1.055063 C.3        1 UNL1     0.0332
     57 C         0.333801   2.640666   -3.270751 C.3        1 UNL1     -0.0567
     58 C         -2.700966   -3.720019   -5.90386 C.3        1 UNL1     0.0210
     59 C         -1.397206   2.034412   -5.496043 C.3        1 UNL1     0.0372
     60 C         -1.395005   -1.32043   -4.874952 C.2        1 UNL1     -0.0208
     61 C         -0.441182   -1.637687   -5.751487 C.2        1 UNL1     0.0882
     62 H         2.105   -3.974945   -3.079504 H        1 UNL1     0.0365
     63 H         2.173008   -5.943911   -3.616884 H        1 UNL1     0.0576
     64 H         3.621787   -7.630384   -1.482962 H        1 UNL1     0.0615
     65 H         2.132619   -8.369685   -4.127517 H        1 UNL1     0.0622
     66 H         -2.75657   0.244419   -4.742557 H        1 UNL1     0.0645
     67 H         -3.100785   0.266146   -2.649414 H        1 UNL1     0.0362
     68 H         -1.856783   2.05779   -2.407659 H        1 UNL1     0.0741
     69 H         0.566186   2.09091   -1.333177 H        1 UNL1     0.0359
     70 H         2.244821   0.802214   -2.054951 H        1 UNL1     0.0600
     71 H         2.173544   -0.583976   -0.388185 H        1 UNL1     0.0348
     72 H         2.317464   -2.231123   -2.176548 H        1 UNL1     0.0602
     73 H         -2.103968   -2.051405   -4.57446 H        1 UNL1     0.0628
     74 H         0.356736   -0.963859   -6.065367 H        1 UNL1     0.1022
     75 H         3.825335   -11.790973   -2.559819 H        1 UNL1     0.0279
     76 H         2.914615   -11.256263   -1.2041 H        1 UNL1     0.0279
     77 H         2.182261   -12.279082   -2.505175 H        1 UNL1     0.0279
     78 H         0.116663   -11.094571   -2.697948 H        1 UNL1     0.1553
     79 H         0.203   -9.559307   -1.448254 H        1 UNL1     0.1484
     80 H         -1.908956   -6.547492   -0.495305 H        1 UNL1     0.0317
     81 H         -2.42381   -7.729609   -1.690064 H        1 UNL1     0.0317
     82 H         -1.502303   -9.611454   -0.310503 H        1 UNL1     0.0428
     83 H         -2.677146   -8.648453   0.557872 H        1 UNL1     0.0428
     84 H         1.420415   -7.851915   1.38168 H        1 UNL1     0.0428
     85 H         1.096361   -9.116654   0.248302 H        1 UNL1     0.0428
     86 H         1.715444   -6.889093   -0.689547 H        1 UNL1     0.0317
     87 H         0.377808   -6.10794   0.019594 H        1 UNL1     0.0317
     88 H         -1.313553   -10.044497   2.060987 H        1 UNL1     0.0429
     89 H         0.187241   -9.397446   2.728202 H        1 UNL1     0.0429
     90 H         -1.64121   -7.306761   3.158078 H        1 UNL1     0.0308
     91 H         -3.65847   -8.407624   4.211089 H        1 UNL1     0.0233
     92 H         -3.573068   -8.701748   2.455614 H        1 UNL1     0.0233
     93 H         -3.142888   -9.968847   3.584334 H        1 UNL1     0.0233
     94 H         -1.734329   -8.604738   5.532289 H        1 UNL1     0.0233
     95 H         -0.339347   -9.394328   4.780689 H        1 UNL1     0.0233
     96 H         -0.358953   -7.626881   4.980029 H        1 UNL1     0.0233
     97 H         -2.831417   -5.98043   -9.287621 H        1 UNL1     0.0280
     98 H         -1.263181   -6.259719   -9.994602 H        1 UNL1     0.0280
     99 H         -2.399681   -7.625695   -9.789157 H        1 UNL1     0.0280
     100 H         -2.449576   -9.334477   -8.665569 H        1 UNL1     0.2922
     101 H         4.062313   -2.493223   -2.623998 H        1 UNL1     0.0236
     102 H         4.597731   -4.013321   -3.441731 H        1 UNL1     0.0236
     103 H         4.874436   -3.752501   -1.747357 H        1 UNL1     0.0236
     104 H         3.305663   -1.899151   -0.124781 H        1 UNL1     0.2098
     105 H         -0.699088   -1.424146   -0.702762 H        1 UNL1     0.0234
     106 H         0.316361   -1.472852   0.766111 H        1 UNL1     0.0234
     107 H         0.0   0.0   0.0 H        1 UNL1     0.0234
     108 H         1.879985   -1.133015   -3.459264 H        1 UNL1     0.2098
     109 H         -2.925078   -2.032812   -2.608631 H        1 UNL1     0.0234
     110 H         -1.165761   -2.000274   -2.267241 H        1 UNL1     0.0234
     111 H         -2.296477   -1.442257   -1.084472 H        1 UNL1     0.0234
     112 H         -0.83614   3.861854   0.502095 H        1 UNL1     0.0342
     113 H         -2.483266   3.348072   1.013215 H        1 UNL1     0.0342
     114 H         -1.11037   3.164713   2.108435 H        1 UNL1     0.0342
     115 H         1.200072   3.291489   -3.088561 H        1 UNL1     0.0234
     116 H         0.415882   2.262919   -4.291838 H        1 UNL1     0.0234
     117 H         -0.491905   3.372388   -3.243675 H        1 UNL1     0.0234
     118 H         -3.041194   -2.675715   -6.01647 H        1 UNL1     0.0309
     119 H         -3.373513   -4.378092   -6.463165 H        1 UNL1     0.0309
     120 H         -2.881563   -3.931617   -4.844276 H        1 UNL1     0.0309
     121 H         -1.640496   2.813134   -4.773715 H        1 UNL1     0.0524
     122 H         -0.685833   2.464336   -6.220716 H        1 UNL1     0.0524
     123 H         -2.292761   1.720598   -6.024812 H        1 UNL1     0.0524
@<TRIPOS>BOND
     1     1     2    1
     2     1    42    1
     3     2     3    2
     4     3     4    1
     5     4     5    2
     6     5     7    1
     7     6    75    1
     8     6    76    1
     9     6    77    1
    10     7     9   am
    11     9    10    1
    12    10    11    2
    13    10    43    1
    14    11    14    1
    15    11    15    1
    16    12    13   ar
    17    12    27   ar
    18    12    43    1
    19    13    14    1
    20    13    30   ar
    21    14    17    2
    22    15    16    1
    23    16    17    1
    24    16    18    1
    25    16    22    1
    26    18    19    1
    27    19    20    1
    28    20    21    1
    29    21    22    1
    30    23    24    1
    31    23    88    1
    32    23    89    1
    33    24    25    1
    34    24    26    1
    35    24    90    1
    36    25    91    1
    37    25    92    1
    38    25    93    1
    39    26    94    1
    40    26    95    1
    41    26    96    1
    42    27    28   ar
    43    28    29   ar
    44    29    30   ar
    45    29    31    1
    46    30    33    1
    47    31    32    1
    48    32    33    1
    49    32    35    1
    50    34    97    1
    51    34    98    1
    52    34    99    1
    53    35    61    1
    54    36    37    1
    55    36    60    1
    56    37    38    1
    57    38    39    1
    58    39    40    1
    59    40    41    1
    60    41    42    1
    61    45   100    1
    62    47   101    1
    63    47   102    1
    64    47   103    1
    65    48   104    1
    66    49   105    1
    67    49   106    1
    68    49   107    1
    69    50   108    1
    70    51    59    1
    71    52   109    1
    72    52   110    1
    73    52   111    1
    74    53    54    1
    75    54    55    2
    76    54    56    1
    77    56   112    1
    78    56   113    1
    79    56   114    1
    80    57   115    1
    81    57   116    1
    82    57   117    1
    83    58   118    1
    84    58   119    1
    85    58   120    1
    86    59   121    1
    87    59   122    1
    88    59   123    1
    89    60    61    2
    90     1    47    1
    91     1    62    1
    92     2    63    1
    93     3    64    1
    94     4    65    1
    95     5     6    1
    96     7     8    2
    97     9    78    1
    98    15    79    1
    99    18    80    1
   100    18    81    1
   101    19    82    1
   102    19    83    1
   103    20    23    1
   104    21    84    1
   105    21    85    1
   106    22    86    1
   107    22    87    1
   108    27    45    1
   109    28    34    1
   110    32    58    1
   111    33    46    2
   112    36    51    1
   113    36    66    1
   114    37    52    1
   115    37    67    1
   116    38    53    1
   117    38    68    1
   118    42    48    1
   119    42    72    1
   120    43    44    2
   121    60    73    1
   122    61    74    1
   123    39    69    1
   124    39    57    1
   125    40    70    1
   126    40    50    1
   127    41    71    1
   128    41    49    1
