@<TRIPOS>MOLECULE
*****
 123 128 0 0 0
SMALL
GASTEIGER

@<TRIPOS>ATOM
     1 C         0.284201   0.018544   4.117436 C.3        1 UNL1     0.0009
     2 C         -0.901375   -0.722018   5.335227 C.2        1 UNL1     -0.0787
     3 C         -2.016483   -0.580743   6.247708 C.2        1 UNL1     -0.0649
     4 C         -2.825953   -1.800393   7.098337 C.2        1 UNL1     -0.0542
     5 C         -4.019522   -2.144954   7.779328 C.2        1 UNL1     0.0115
     6 C         -5.347732   -1.578414   8.352227 C.3        1 UNL1     -0.0348
     7 C         -4.348981   -3.695374   8.033576 C.2        1 UNL1     0.2441
     8 O         -4.182578   -4.242358   9.115077 O.2        1 UNL1     -0.2702
     9 N         -5.084191   -4.316945   7.009238 N.am        1 UNL1     -0.2772
     10 C         -4.237704   -4.822527   6.049462 C.2        1 UNL1     0.1049
     11 C         -3.814884   -3.966467   5.13699 C.2        1 UNL1     0.0801
     12 C         -2.17995   -6.21369   5.753407 C.ar        1 UNL1     0.0753
     13 C         -1.676776   -5.15439   4.932854 C.ar        1 UNL1     0.0305
     14 C         -2.53281   -4.055268   4.492184 C.2        1 UNL1     0.0924
     15 N         -4.236531   -2.720632   4.860157 N.pl3        1 UNL1     -0.3170
     16 C         -3.565362   -2.285161   3.664268 C.3        1 UNL1     0.1275
     17 N         -2.266357   -3.053457   3.658935 N.2        1 UNL1     -0.2557
     18 C         -4.37082   -2.8069   2.478213 C.3        1 UNL1     0.0016
     19 C         -5.803333   -2.314531   2.608862 C.3        1 UNL1     0.0026
     20 N         -5.796687   -0.858459   2.637824 N.3        1 UNL1     -0.3018
     21 C         -4.996283   -0.261568   3.709011 C.3        1 UNL1     0.0026
     22 C         -3.560343   -0.766033   3.555762 C.3        1 UNL1     0.0016
     23 C         -7.115684   -0.284836   2.459365 C.3        1 UNL1     0.0012
     24 C         -7.602604   -0.492416   1.016598 C.3        1 UNL1     -0.0339
     25 C         -8.590653   -1.666502   0.919963 C.3        1 UNL1     -0.0615
     26 C         -8.208302   0.793414   0.481294 C.3        1 UNL1     -0.0615
     27 C         -1.392464   -7.318349   6.069181 C.ar        1 UNL1     0.1347
     28 C         -0.105685   -7.49338   5.592091 C.ar        1 UNL1     0.0342
     29 C         0.385889   -6.414836   4.826413 C.ar        1 UNL1     0.1435
     30 C         -0.378823   -5.285341   4.532002 C.ar        1 UNL1     0.0774
     31 O         1.580783   -6.48227   4.199767 O.3        1 UNL1     -0.4436
     32 C         1.517106   -5.466597   3.187232 C.3        1 UNL1     0.3143
     33 C         0.471735   -4.484651   3.676307 C.2        1 UNL1     0.2504
     34 C         0.702698   -8.757884   5.67953 C.3        1 UNL1     -0.0327
     35 O         2.773306   -4.777293   3.195726 O.2        1 UNL1     -0.4528
     36 C         3.331333   -3.587093   -0.365189 C.3        1 UNL1     0.0854
     37 C         2.417848   -2.666425   -1.262651 C.3        1 UNL1     0.0236
     38 C         3.145248   -1.367008   -1.857757 C.3        1 UNL1     0.1131
     39 C         3.95224   -0.407867   -0.892831 C.3        1 UNL1     0.0200
     40 C         3.322961   0.02235   0.590867 C.3        1 UNL1     0.0661
     41 C         1.760399   0.619812   0.872025 C.3        1 UNL1     0.0091
     42 C         0.652878   0.420251   2.320808 C.3        1 UNL1     0.0661
     43 C         -3.598375   -6.139976   6.183405 C.2        1 UNL1     0.2131
     44 O         -4.248271   -7.110085   6.528746 O.2        1 UNL1     -0.2851
     45 O         -1.942237   -8.283063   6.910913 O.3        1 UNL1     -0.5056
     46 O         0.37563   -3.302649   3.432403 O.2        1 UNL1     -0.2836
     47 C         1.359888   0.860081   4.855468 C.3        1 UNL1     -0.0566
     48 O         0.309425   1.860676   2.400389 O.3        1 UNL1     -0.3909
     49 C         0.91871   0.384999   -0.362446 C.3        1 UNL1     -0.0577
     50 O         3.658034   -0.93595   1.574286 O.3        1 UNL1     -0.3910
     51 O         4.607106   -3.073884   -0.054624 O.3        1 UNL1     -0.3753
     52 C         0.942546   -2.629724   -0.745849 C.3        1 UNL1     -0.0564
     53 O         2.382681   -0.708301   -2.969927 O.3        1 UNL1     -0.4608
     54 C         2.530783   0.592805   -3.373807 C.2        1 UNL1     0.3042
     55 O         1.72164   1.510955   -3.246821 O.2        1 UNL1     -0.2512
     56 C         3.872544   0.884309   -3.983247 C.3        1 UNL1     0.0332
     57 C         5.489239   -0.846439   -0.951685 C.3        1 UNL1     -0.0567
     58 C         0.992361   -6.157475   1.907052 C.3        1 UNL1     0.0210
     59 C         5.602756   -4.061527   0.208259 C.3        1 UNL1     0.0372
     60 C         2.718198   -4.019805   0.920107 C.2        1 UNL1     -0.0208
     61 C         3.228817   -4.058803   2.151567 C.2        1 UNL1     0.0882
     62 H         0.717451   -0.977007   3.962888 H        1 UNL1     0.0365
     63 H         -0.52068   -1.743799   5.394422 H        1 UNL1     0.0576
     64 H         -2.560893   0.361224   6.344783 H        1 UNL1     0.0615
     65 H         -2.165136   -2.666385   7.004193 H        1 UNL1     0.0622
     66 H         3.467037   -4.502841   -0.957672 H        1 UNL1     0.0645
     67 H         2.251742   -3.262856   -2.176565 H        1 UNL1     0.0362
     68 H         3.905259   -1.853934   -2.487684 H        1 UNL1     0.0741
     69 H         4.082198   0.548493   -1.381599 H        1 UNL1     0.0359
     70 H         3.963884   0.893999   0.824334 H        1 UNL1     0.0600
     71 H         1.953574   1.708085   0.799212 H        1 UNL1     0.0348
     72 H         1.665939   0.186391   2.679042 H        1 UNL1     0.0602
     73 H         1.76766   -4.451088   0.725893 H        1 UNL1     0.0628
     74 H         4.168445   -3.589303   2.444667 H        1 UNL1     0.1022
     75 H         -5.430819   -0.484964   8.141286 H        1 UNL1     0.0279
     76 H         -6.267284   -1.970267   7.923341 H        1 UNL1     0.0279
     77 H         -5.37578   -1.589855   9.451674 H        1 UNL1     0.0279
     78 H         -5.686401   -3.632394   6.55668 H        1 UNL1     0.1553
     79 H         -5.126898   -2.357368   5.146896 H        1 UNL1     0.1484
     80 H         -3.908781   -2.452776   1.54876 H        1 UNL1     0.0317
     81 H         -4.349343   -3.901368   2.44174 H        1 UNL1     0.0317
     82 H         -6.295353   -2.725962   3.50248 H        1 UNL1     0.0428
     83 H         -6.360375   -2.699455   1.754117 H        1 UNL1     0.0428
     84 H         -4.943215   0.830511   3.660457 H        1 UNL1     0.0428
     85 H         -5.424341   -0.464062   4.700515 H        1 UNL1     0.0428
     86 H         -2.980315   -0.20946   4.268351 H        1 UNL1     0.0317
     87 H         -3.151546   -0.445191   2.589821 H        1 UNL1     0.0317
     88 H         -7.806983   -0.800018   3.139062 H        1 UNL1     0.0429
     89 H         -7.128523   0.778169   2.732548 H        1 UNL1     0.0429
     90 H         -6.740615   -0.707658   0.374057 H        1 UNL1     0.0308
     91 H         -9.45093   -1.517669   1.579413 H        1 UNL1     0.0233
     92 H         -8.943049   -1.79133   -0.106606 H        1 UNL1     0.0233
     93 H         -8.133199   -2.621801   1.204525 H        1 UNL1     0.0233
     94 H         -8.741336   0.598438   -0.455561 H        1 UNL1     0.0233
     95 H         -8.927075   1.195657   1.200688 H        1 UNL1     0.0233
     96 H         -7.439604   1.547642   0.291004 H        1 UNL1     0.0233
     97 H         1.667023   -8.659674   5.189976 H        1 UNL1     0.0280
     98 H         0.920219   -9.039002   6.718238 H        1 UNL1     0.0280
     99 H         0.152322   -9.581881   5.196612 H        1 UNL1     0.0280
     100 H         -1.923082   -9.159053   6.567551 H        1 UNL1     0.2922
     101 H         2.082685   1.245027   4.136415 H        1 UNL1     0.0236
     102 H         1.841313   0.320671   5.670483 H        1 UNL1     0.0236
     103 H         0.929953   1.758722   5.328536 H        1 UNL1     0.0236
     104 H         0.921032   2.274816   3.040228 H        1 UNL1     0.2098
     105 H         0.700443   1.283159   -0.934704 H        1 UNL1     0.0234
     106 H         1.285519   -0.402484   -1.020662 H        1 UNL1     0.0234
     107 H         0.0   -0.0   0.0 H        1 UNL1     0.0234
     108 H         3.205947   -1.767795   1.334665 H        1 UNL1     0.2098
     109 H         0.872894   -2.263261   0.287865 H        1 UNL1     0.0234
     110 H         0.276017   -2.043926   -1.387973 H        1 UNL1     0.0234
     111 H         0.491694   -3.631026   -0.73725 H        1 UNL1     0.0234
     112 H         3.932456   1.940325   -4.263581 H        1 UNL1     0.0342
     113 H         4.691789   0.60883   -3.320833 H        1 UNL1     0.0342
     114 H         3.970216   0.286471   -4.899879 H        1 UNL1     0.0342
     115 H         5.8903   -0.793221   -1.973206 H        1 UNL1     0.0234
     116 H         6.144797   -0.254086   -0.310272 H        1 UNL1     0.0234
     117 H         5.652137   -1.911768   -0.714031 H        1 UNL1     0.0234
     118 H         1.798949   -6.664928   1.349457 H        1 UNL1     0.0309
     119 H         0.187983   -6.87327   2.104071 H        1 UNL1     0.0309
     120 H         0.59178   -5.444139   1.178496 H        1 UNL1     0.0309
     121 H         5.302123   -4.602125   1.105326 H        1 UNL1     0.0524
     122 H         5.688875   -4.796691   -0.609148 H        1 UNL1     0.0524
     123 H         6.569157   -3.589555   0.361247 H        1 UNL1     0.0524
@<TRIPOS>BOND
     1     1     2    1
     2     1    42    1
     3     2     3    2
     4     3     4    1
     5     4     5    2
     6     5     7    1
     7     6    75    1
     8     6    76    1
     9     6    77    1
    10     7     9   am
    11     9    10    1
    12    10    11    2
    13    10    43    1
    14    11    14    1
    15    11    15    1
    16    12    13   ar
    17    12    27   ar
    18    12    43    1
    19    13    14    1
    20    13    30   ar
    21    14    17    2
    22    15    16    1
    23    16    17    1
    24    16    18    1
    25    16    22    1
    26    18    19    1
    27    19    20    1
    28    20    21    1
    29    21    22    1
    30    23    24    1
    31    23    88    1
    32    23    89    1
    33    24    25    1
    34    24    26    1
    35    24    90    1
    36    25    91    1
    37    25    92    1
    38    25    93    1
    39    26    94    1
    40    26    95    1
    41    26    96    1
    42    27    28   ar
    43    28    29   ar
    44    29    30   ar
    45    29    31    1
    46    30    33    1
    47    31    32    1
    48    32    33    1
    49    32    35    1
    50    34    97    1
    51    34    98    1
    52    34    99    1
    53    35    61    1
    54    36    37    1
    55    36    60    1
    56    37    38    1
    57    38    39    1
    58    39    40    1
    59    40    41    1
    60    41    42    1
    61    45   100    1
    62    47   101    1
    63    47   102    1
    64    47   103    1
    65    48   104    1
    66    49   105    1
    67    49   106    1
    68    49   107    1
    69    50   108    1
    70    51    59    1
    71    52   109    1
    72    52   110    1
    73    52   111    1
    74    53    54    1
    75    54    55    2
    76    54    56    1
    77    56   112    1
    78    56   113    1
    79    56   114    1
    80    57   115    1
    81    57   116    1
    82    57   117    1
    83    58   118    1
    84    58   119    1
    85    58   120    1
    86    59   121    1
    87    59   122    1
    88    59   123    1
    89    60    61    2
    90     1    47    1
    91     1    62    1
    92     2    63    1
    93     3    64    1
    94     4    65    1
    95     5     6    1
    96     7     8    2
    97     9    78    1
    98    15    79    1
    99    18    80    1
   100    18    81    1
   101    19    82    1
   102    19    83    1
   103    20    23    1
   104    21    84    1
   105    21    85    1
   106    22    86    1
   107    22    87    1
   108    27    45    1
   109    28    34    1
   110    32    58    1
   111    33    46    2
   112    36    51    1
   113    36    66    1
   114    37    52    1
   115    37    67    1
   116    38    53    1
   117    38    68    1
   118    42    48    1
   119    42    72    1
   120    43    44    2
   121    60    73    1
   122    61    74    1
   123    39    69    1
   124    39    57    1
   125    40    70    1
   126    40    50    1
   127    41    71    1
   128    41    49    1
