@<TRIPOS>MOLECULE
*****
 123 128 0 0 0
SMALL
GASTEIGER

@<TRIPOS>ATOM
     1 C         1.803077   2.547838   3.748356 C.3        1 UNL1     0.0009
     2 C         1.957218   2.439778   5.592699 C.2        1 UNL1     -0.0787
     3 C         1.383605   2.598274   6.912507 C.2        1 UNL1     -0.0649
     4 C         2.068481   2.176536   8.402285 C.2        1 UNL1     -0.0542
     5 C         1.800499   1.887038   9.762967 C.2        1 UNL1     0.0115
     6 C         0.70198   1.915594   10.861038 C.3        1 UNL1     -0.0348
     7 C         2.912908   1.117081   10.627086 C.2        1 UNL1     0.2441
     8 O         3.64539   1.684472   11.425875 O.2        1 UNL1     -0.2702
     9 N         2.814247   -0.284928   10.599019 N.am        1 UNL1     -0.2772
     10 C         3.522277   -0.794939   9.535109 C.2        1 UNL1     0.1049
     11 C         2.902281   -0.793382   8.368994 C.2        1 UNL1     0.0801
     12 C         5.746573   -0.682652   8.396147 C.ar        1 UNL1     0.0753
     13 C         5.024523   -0.473474   7.178158 C.ar        1 UNL1     0.0305
     14 C         3.576265   -0.653702   7.10661 C.2        1 UNL1     0.0924
     15 N         1.609593   -0.567632   8.078268 N.pl3        1 UNL1     -0.3170
     16 C         1.416671   -0.854817   6.681644 C.3        1 UNL1     0.1275
     17 N         2.765309   -0.600474   6.053784 N.2        1 UNL1     -0.2557
     18 C         1.168441   -2.355132   6.558609 C.3        1 UNL1     0.0016
     19 C         -0.009648   -2.727429   7.444664 C.3        1 UNL1     0.0026
     20 N         -1.175501   -1.966637   7.016867 N.3        1 UNL1     -0.3018
     21 C         -1.011742   -0.511665   7.041532 C.3        1 UNL1     0.0026
     22 C         0.173901   -0.159696   6.141387 C.3        1 UNL1     0.0016
     23 C         -2.41188   -2.458879   7.59107 C.3        1 UNL1     0.0012
     24 C         -2.272506   -2.619401   9.113096 C.3        1 UNL1     -0.0339
     25 C         -3.091919   -3.813299   9.630037 C.3        1 UNL1     -0.0615
     26 C         -0.806754   -2.741509   9.491831 C.3        1 UNL1     -0.0615
     27 C         7.137967   -0.627299   8.42895 C.ar        1 UNL1     0.1347
     28 C         7.914822   -0.41085   7.304807 C.ar        1 UNL1     0.0342
     29 C         7.180758   -0.159076   6.126281 C.ar        1 UNL1     0.1435
     30 C         5.786021   -0.175472   6.085533 C.ar        1 UNL1     0.0774
     31 O         7.791848   -0.039217   4.927445 O.3        1 UNL1     -0.4436
     32 C         6.751497   -0.269629   3.96544 C.3        1 UNL1     0.3143
     33 C         5.461352   0.05108   4.692683 C.2        1 UNL1     0.2504
     34 C         9.405201   -0.586758   7.215772 C.3        1 UNL1     -0.0327
     35 O         6.902503   0.710994   2.931598 O.2        1 UNL1     -0.4528
     36 C         5.604813   -0.915518   -0.243075 C.3        1 UNL1     0.0854
     37 C         4.184791   -1.536291   -0.535821 C.3        1 UNL1     0.0236
     38 C         3.436152   -0.935157   -1.820314 C.3        1 UNL1     0.1131
     39 C         3.291897   0.631664   -1.983206 C.3        1 UNL1     0.0200
     40 C         2.862442   1.580565   -0.680289 C.3        1 UNL1     0.0661
     41 C         1.55401   1.302653   0.362967 C.3        1 UNL1     0.0091
     42 C         1.357689   1.66996   2.149569 C.3        1 UNL1     0.0661
     43 C         4.968913   -1.049114   9.605779 C.2        1 UNL1     0.2131
     44 O         5.449728   -1.620782   10.567418 O.2        1 UNL1     -0.2851
     45 O         7.761392   -0.796895   9.66346 O.3        1 UNL1     -0.5056
     46 O         4.409053   0.429849   4.228942 O.2        1 UNL1     -0.2836
     47 C         1.863181   4.029222   3.288064 C.3        1 UNL1     -0.0566
     48 O         0.017051   2.284085   1.992542 O.3        1 UNL1     -0.3909
     49 C         1.045064   -0.104546   0.143289 C.3        1 UNL1     -0.0577
     50 O         4.003628   1.954701   0.06499 O.3        1 UNL1     -0.3910
     51 O         5.96411   0.198375   -1.028938 O.3        1 UNL1     -0.3753
     52 C         3.420911   -1.888708   0.782222 C.3        1 UNL1     -0.0564
     53 O         2.273036   -1.764527   -2.280349 O.3        1 UNL1     -0.4608
     54 C         0.958289   -1.379773   -2.243816 C.2        1 UNL1     0.3042
     55 O         0.100732   -1.727042   -1.432744 O.2        1 UNL1     -0.2512
     56 C         0.594919   -0.378854   -3.303456 C.3        1 UNL1     0.0332
     57 C         4.498392   1.133783   -2.905389 C.3        1 UNL1     -0.0567
     58 C         6.780224   -1.78201   3.643869 C.3        1 UNL1     0.0210
     59 C         7.368866   0.410855   -1.16076 C.3        1 UNL1     0.0372
     60 C         5.844449   -0.535086   1.175729 C.2        1 UNL1     -0.0208
     61 C         6.387807   0.566482   1.695398 C.2        1 UNL1     0.0882
     62 H         2.821493   2.150865   3.659182 H        1 UNL1     0.0365
     63 H         3.006342   2.153828   5.69291 H        1 UNL1     0.0576
     64 H         0.335479   2.872293   7.051982 H        1 UNL1     0.0615
     65 H         3.121228   2.001022   8.164794 H        1 UNL1     0.0622
     66 H         6.311661   -1.728615   -0.460528 H        1 UNL1     0.0645
     67 H         4.405707   -2.564367   -0.871701 H        1 UNL1     0.0362
     68 H         4.140837   -1.246575   -2.606418 H        1 UNL1     0.0741
     69 H         2.503899   0.836419   -2.695626 H        1 UNL1     0.0359
     70 H         2.561815   2.505414   -1.208813 H        1 UNL1     0.0600
     71 H         0.771105   1.898515   -0.145919 H        1 UNL1     0.0348
     72 H         2.180922   2.308377   1.797396 H        1 UNL1     0.0602
     73 H         5.623005   -1.363596   1.801654 H        1 UNL1     0.0628
     74 H         6.590358   1.478521   1.132907 H        1 UNL1     0.1022
     75 H         1.162809   1.879673   11.877592 H        1 UNL1     0.0279
     76 H         0.09074   2.813817   10.91253 H        1 UNL1     0.0279
     77 H         0.085855   1.004545   10.869995 H        1 UNL1     0.0279
     78 H         1.840906   -0.556963   10.477852 H        1 UNL1     0.1553
     79 H         0.868743   -0.625355   8.752614 H        1 UNL1     0.1484
     80 H         0.972377   -2.600085   5.507742 H        1 UNL1     0.0317
     81 H         2.056948   -2.924153   6.852588 H        1 UNL1     0.0317
     82 H         0.209267   -2.551647   8.508191 H        1 UNL1     0.0428
     83 H         -0.168179   -3.801501   7.343243 H        1 UNL1     0.0428
     84 H         -1.871987   0.033416   6.640687 H        1 UNL1     0.0428
     85 H         -0.907597   -0.129344   8.066374 H        1 UNL1     0.0428
     86 H         0.180863   0.912637   6.077811 H        1 UNL1     0.0317
     87 H         -0.031885   -0.473705   5.110782 H        1 UNL1     0.0317
     88 H         -3.199921   -1.721941   7.388072 H        1 UNL1     0.0429
     89 H         -2.723055   -3.400395   7.120441 H        1 UNL1     0.0429
     90 H         -2.634078   -1.708593   9.604937 H        1 UNL1     0.0308
     91 H         -2.941619   -4.699049   9.00557 H        1 UNL1     0.0233
     92 H         -2.819894   -4.051048   10.661098 H        1 UNL1     0.0233
     93 H         -4.169327   -3.608433   9.637514 H        1 UNL1     0.0233
     94 H         -0.708094   -3.23058   10.466979 H        1 UNL1     0.0233
     95 H         -0.2797   -3.352287   8.753504 H        1 UNL1     0.0233
     96 H         -0.325778   -1.760894   9.546811 H        1 UNL1     0.0233
     97 H         9.941143   0.256748   7.640618 H        1 UNL1     0.0280
     98 H         9.751187   -1.47102   7.766799 H        1 UNL1     0.0280
     99 H         9.702359   -0.68824   6.15913 H        1 UNL1     0.0280
     100 H         7.681674   -1.661304   10.026866 H        1 UNL1     0.2922
     101 H         2.838315   4.238449   2.848752 H        1 UNL1     0.0236
     102 H         1.611254   4.734502   4.079327 H        1 UNL1     0.0236
     103 H         1.141516   4.241956   2.481754 H        1 UNL1     0.0236
     104 H         -0.644359   1.566939   2.049182 H        1 UNL1     0.2098
     105 H         1.453615   -0.597884   -0.73507 H        1 UNL1     0.0234
     106 H         1.121177   -0.757246   1.012839 H        1 UNL1     0.0234
     107 H         -0.0   0.0   0.0 H        1 UNL1     0.0234
     108 H         3.803922   2.810287   0.491438 H        1 UNL1     0.2098
     109 H         2.947826   -2.879577   0.736588 H        1 UNL1     0.0234
     110 H         4.051578   -1.82457   1.675468 H        1 UNL1     0.0234
     111 H         2.60635   -1.179249   0.979969 H        1 UNL1     0.0234
     112 H         -0.458478   -0.099291   -3.205757 H        1 UNL1     0.0342
     113 H         1.236844   0.500289   -3.273759 H        1 UNL1     0.0342
     114 H         0.727426   -0.854768   -4.284839 H        1 UNL1     0.0342
     115 H         5.209297   0.325067   -3.123977 H        1 UNL1     0.0234
     116 H         4.180713   1.55857   -3.859687 H        1 UNL1     0.0234
     117 H         5.156292   1.867257   -2.408272 H        1 UNL1     0.0234
     118 H         7.401112   -2.005968   2.758801 H        1 UNL1     0.0309
     119 H         7.12171   -2.393672   4.484976 H        1 UNL1     0.0309
     120 H         5.794697   -2.171497   3.366122 H        1 UNL1     0.0309
     121 H         7.524787   1.470907   -1.359093 H        1 UNL1     0.0524
     122 H         7.918147   0.161538   -0.23763 H        1 UNL1     0.0524
     123 H         7.764121   -0.185523   -1.978195 H        1 UNL1     0.0524
@<TRIPOS>BOND
     1     1     2    1
     2     1    42    1
     3     2     3    2
     4     3     4    1
     5     4     5    2
     6     5     7    1
     7     6    75    1
     8     6    76    1
     9     6    77    1
    10     7     9   am
    11     9    10    1
    12    10    11    2
    13    10    43    1
    14    11    14    1
    15    11    15    1
    16    12    13   ar
    17    12    27   ar
    18    12    43    1
    19    13    14    1
    20    13    30   ar
    21    14    17    2
    22    15    16    1
    23    16    17    1
    24    16    18    1
    25    16    22    1
    26    18    19    1
    27    19    20    1
    28    20    21    1
    29    21    22    1
    30    23    24    1
    31    23    88    1
    32    23    89    1
    33    24    25    1
    34    24    26    1
    35    24    90    1
    36    25    91    1
    37    25    92    1
    38    25    93    1
    39    26    94    1
    40    26    95    1
    41    26    96    1
    42    27    28   ar
    43    28    29   ar
    44    29    30   ar
    45    29    31    1
    46    30    33    1
    47    31    32    1
    48    32    33    1
    49    32    35    1
    50    34    97    1
    51    34    98    1
    52    34    99    1
    53    35    61    1
    54    36    37    1
    55    36    60    1
    56    37    38    1
    57    38    39    1
    58    39    40    1
    59    40    41    1
    60    41    42    1
    61    45   100    1
    62    47   101    1
    63    47   102    1
    64    47   103    1
    65    48   104    1
    66    49   105    1
    67    49   106    1
    68    49   107    1
    69    50   108    1
    70    51    59    1
    71    52   109    1
    72    52   110    1
    73    52   111    1
    74    53    54    1
    75    54    55    2
    76    54    56    1
    77    56   112    1
    78    56   113    1
    79    56   114    1
    80    57   115    1
    81    57   116    1
    82    57   117    1
    83    58   118    1
    84    58   119    1
    85    58   120    1
    86    59   121    1
    87    59   122    1
    88    59   123    1
    89    60    61    2
    90     1    47    1
    91     1    62    1
    92     2    63    1
    93     3    64    1
    94     4    65    1
    95     5     6    1
    96     7     8    2
    97     9    78    1
    98    15    79    1
    99    18    80    1
   100    18    81    1
   101    19    82    1
   102    19    83    1
   103    20    23    1
   104    21    84    1
   105    21    85    1
   106    22    86    1
   107    22    87    1
   108    27    45    1
   109    28    34    1
   110    32    58    1
   111    33    46    2
   112    36    51    1
   113    36    66    1
   114    37    52    1
   115    37    67    1
   116    38    53    1
   117    38    68    1
   118    42    48    1
   119    42    72    1
   120    43    44    2
   121    60    73    1
   122    61    74    1
   123    39    69    1
   124    39    57    1
   125    40    70    1
   126    40    50    1
   127    41    71    1
   128    41    49    1
