@<TRIPOS>MOLECULE
*****
 123 128 0 0 0
SMALL
GASTEIGER

@<TRIPOS>ATOM
     1 C         5.153953   1.856763   -0.029896 C.3        1 UNL1     0.0009
     2 C         6.712108   2.073991   0.950921 C.2        1 UNL1     -0.0787
     3 C         7.607182   2.915653   1.71675 C.2        1 UNL1     -0.0649
     4 C         8.997147   2.454457   2.566252 C.2        1 UNL1     -0.0542
     5 C         9.905854   2.817828   3.590601 C.2        1 UNL1     0.0115
     6 C         10.34092   3.974147   4.532392 C.3        1 UNL1     -0.0348
     7 C         10.845648   1.685895   4.232864 C.2        1 UNL1     0.2441
     8 O         12.026425   1.556571   3.940346 O.2        1 UNL1     -0.2702
     9 N         10.293954   1.022169   5.342482 N.am        1 UNL1     -0.2772
     10 C         9.548499   -0.059537   4.933175 C.2        1 UNL1     0.1049
     11 C         8.309872   0.197301   4.553624 C.2        1 UNL1     0.0801
     12 C         9.62459   -2.075565   3.454265 C.ar        1 UNL1     0.0753
     13 C         8.369823   -1.636752   2.923595 C.ar        1 UNL1     0.0305
     14 C         7.609747   -0.55725   3.549704 C.2        1 UNL1     0.0924
     15 N         7.577273   1.315245   4.695144 N.pl3        1 UNL1     -0.3170
     16 C         6.23613   1.018935   4.266437 C.3        1 UNL1     0.1275
     17 N         6.398639   -0.091658   3.257529 N.2        1 UNL1     -0.2557
     18 C         5.505837   0.405672   5.457354 C.3        1 UNL1     0.0016
     19 C         5.591567   1.370092   6.629589 C.3        1 UNL1     0.0026
     20 N         4.986425   2.635934   6.239108 N.3        1 UNL1     -0.3018
     21 C         5.58232   3.273337   5.063099 C.3        1 UNL1     0.0026
     22 C         5.481219   2.288937   3.896638 C.3        1 UNL1     0.0016
     23 C         4.746677   3.51728   7.364449 C.3        1 UNL1     0.0012
     24 C         5.994821   4.363236   7.661522 C.3        1 UNL1     -0.0339
     25 C         6.145084   4.634288   9.167513 C.3        1 UNL1     -0.0615
     26 C         7.229399   3.688828   7.089009 C.3        1 UNL1     -0.0615
     27 C         10.284312   -3.182558   2.925635 C.ar        1 UNL1     0.1347
     28 C         9.770592   -3.951146   1.896356 C.ar        1 UNL1     0.0342
     29 C         8.557947   -3.471442   1.357337 C.ar        1 UNL1     0.1435
     30 C         7.903645   -2.342903   1.852827 C.ar        1 UNL1     0.0774
     31 O         7.875872   -4.170948   0.424347 O.3        1 UNL1     -0.4436
     32 C         6.540745   -3.646574   0.482152 C.3        1 UNL1     0.3143
     33 C         6.685248   -2.259459   1.074811 C.2        1 UNL1     0.2504
     34 C         10.293047   -5.287799   1.448584 C.3        1 UNL1     -0.0327
     35 O         6.090232   -3.478657   -0.867697 O.2        1 UNL1     -0.4528
     36 C         2.326104   -3.959276   -0.775889 C.3        1 UNL1     0.0854
     37 C         1.242885   -3.183162   0.067797 C.3        1 UNL1     0.0236
     38 C         0.056891   -2.530438   -0.791921 C.3        1 UNL1     0.1131
     39 C         0.40034   -1.621775   -2.040378 C.3        1 UNL1     0.0200
     40 C         1.618376   -0.485785   -1.948991 C.3        1 UNL1     0.0661
     41 C         1.809493   0.669629   -0.721757 C.3        1 UNL1     0.0091
     42 C         3.329748   1.41274   -0.013228 C.3        1 UNL1     0.0661
     43 C         10.156873   -1.366776   4.644456 C.2        1 UNL1     0.2131
     44 O         10.967584   -1.854071   5.411287 O.2        1 UNL1     -0.2851
     45 O         11.522975   -3.515887   3.469734 O.3        1 UNL1     -0.5056
     46 O         5.968255   -1.296017   0.921335 O.2        1 UNL1     -0.2836
     47 C         5.311621   2.487862   -1.439449 C.3        1 UNL1     -0.0566
     48 O         2.821085   2.803768   -0.086855 O.3        1 UNL1     -0.3909
     49 C         0.916424   0.298651   0.441127 C.3        1 UNL1     -0.0577
     50 O         2.868167   -1.064387   -2.266742 O.3        1 UNL1     -0.3910
     51 O         2.218904   -3.838398   -2.176364 O.3        1 UNL1     -0.3753
     52 C         1.875893   -2.454736   1.2981 C.3        1 UNL1     -0.0564
     53 O         -1.123779   -2.111682   0.03451 O.3        1 UNL1     -0.4608
     54 C         -1.110807   -1.89622   1.387779 C.2        1 UNL1     0.3042
     55 O         -1.393894   -0.856256   1.981222 O.2        1 UNL1     -0.2512
     56 C         -0.757284   -3.117546   2.187841 C.3        1 UNL1     0.0332
     57 C         0.342115   -2.548986   -3.342324 C.3        1 UNL1     -0.0567
     58 C         5.763939   -4.536911   1.47985 C.3        1 UNL1     0.0210
     59 C         1.762326   -5.012628   -2.84613 C.3        1 UNL1     0.0372
     60 C         3.738466   -3.647399   -0.424995 C.2        1 UNL1     -0.0208
     61 C         4.789455   -3.400534   -1.208081 C.2        1 UNL1     0.0882
     62 H         5.391759   0.791409   -0.13563 H        1 UNL1     0.0365
     63 H         7.158713   1.083059   0.845718 H        1 UNL1     0.0576
     64 H         7.355412   3.951568   1.954653 H        1 UNL1     0.0615
     65 H         9.203846   1.445344   2.199578 H        1 UNL1     0.0622
     66 H         2.176368   -5.015746   -0.512268 H        1 UNL1     0.0645
     67 H         0.706475   -3.979355   0.612683 H        1 UNL1     0.0362
     68 H         -0.391254   -3.444386   -1.210714 H        1 UNL1     0.0741
     69 H         -0.466293   -1.021233   -2.282667 H        1 UNL1     0.0359
     70 H         1.367995   0.133663   -2.831405 H        1 UNL1     0.0600
     71 H         1.248965   1.516287   -1.164404 H        1 UNL1     0.0348
     72 H         3.621816   0.996138   -0.988141 H        1 UNL1     0.0602
     73 H         3.872683   -3.765943   0.621514 H        1 UNL1     0.0628
     74 H         4.72834   -3.208671   -2.279851 H        1 UNL1     0.1022
     75 H         10.935107   4.734727   3.970704 H        1 UNL1     0.0279
     76 H         9.543129   4.573317   4.965513 H        1 UNL1     0.0279
     77 H         11.065852   3.65217   5.294301 H        1 UNL1     0.0279
     78 H         9.670397   1.652285   5.842689 H        1 UNL1     0.1553
     79 H         7.789225   2.040127   5.355867 H        1 UNL1     0.1484
     80 H         4.46429   0.209336   5.175578 H        1 UNL1     0.0317
     81 H         5.944207   -0.560318   5.730017 H        1 UNL1     0.0317
     82 H         6.629746   1.513958   6.963352 H        1 UNL1     0.0428
     83 H         5.066156   0.912403   7.468346 H        1 UNL1     0.0428
     84 H         5.059617   4.180267   4.743616 H        1 UNL1     0.0428
     85 H         6.609303   3.611923   5.257987 H        1 UNL1     0.0428
     86 H         5.802549   2.834395   3.028761 H        1 UNL1     0.0317
     87 H         4.428282   2.068609   3.682452 H        1 UNL1     0.0317
     88 H         3.921945   4.192017   7.100172 H        1 UNL1     0.0429
     89 H         4.429708   2.954039   8.251615 H        1 UNL1     0.0429
     90 H         5.909722   5.324254   7.140548 H        1 UNL1     0.0308
     91 H         5.992939   3.722518   9.752859 H        1 UNL1     0.0233
     92 H         7.133859   5.042361   9.389797 H        1 UNL1     0.0233
     93 H         5.420555   5.371849   9.533432 H        1 UNL1     0.0233
     94 H         8.127872   4.045922   7.603854 H        1 UNL1     0.0233
     95 H         7.165285   2.606799   7.23415 H        1 UNL1     0.0233
     96 H         7.337991   3.895856   6.020686 H        1 UNL1     0.0233
     97 H         11.252199   -5.202982   0.946525 H        1 UNL1     0.0280
     98 H         10.454526   -5.972478   2.291434 H        1 UNL1     0.0280
     99 H         9.576457   -5.748658   0.749154 H        1 UNL1     0.0280
     100 H         11.481973   -4.091746   4.212921 H        1 UNL1     0.2922
     101 H         5.450026   1.701375   -2.181028 H        1 UNL1     0.0236
     102 H         6.099876   3.238425   -1.487318 H        1 UNL1     0.0236
     103 H         4.399227   3.017699   -1.760387 H        1 UNL1     0.0236
     104 H         1.884963   2.761223   -0.36405 H        1 UNL1     0.2098
     105 H         1.282296   -0.530315   1.041764 H        1 UNL1     0.0234
     106 H         0.633079   1.133412   1.082077 H        1 UNL1     0.0234
     107 H         -0.0   0.0   0.0 H        1 UNL1     0.0234
     108 H         3.535075   -0.35181   -2.231591 H        1 UNL1     0.2098
     109 H         1.218617   -2.477681   2.178539 H        1 UNL1     0.0234
     110 H         2.863378   -2.844467   1.567777 H        1 UNL1     0.0234
     111 H         2.05697   -1.391796   1.089975 H        1 UNL1     0.0234
     112 H         -0.785509   -2.883498   3.256378 H        1 UNL1     0.0342
     113 H         -1.405451   -3.961166   1.9554 H        1 UNL1     0.0342
     114 H         0.271376   -3.408215   1.933805 H        1 UNL1     0.0342
     115 H         -0.026033   -1.998937   -4.219308 H        1 UNL1     0.0234
     116 H         1.301292   -2.994718   -3.613159 H        1 UNL1     0.0234
     117 H         -0.402617   -3.360353   -3.271615 H        1 UNL1     0.0234
     118 H         5.051541   -3.953172   2.088737 H        1 UNL1     0.0309
     119 H         5.229963   -5.360403   0.995153 H        1 UNL1     0.0309
     120 H         6.417299   -4.99815   2.228506 H        1 UNL1     0.0309
     121 H         0.680548   -4.933289   -2.95014 H        1 UNL1     0.0524
     122 H         2.187106   -5.108283   -3.859269 H        1 UNL1     0.0524
     123 H         2.019686   -5.897495   -2.270918 H        1 UNL1     0.0524
@<TRIPOS>BOND
     1     1     2    1
     2     1    42    1
     3     2     3    2
     4     3     4    1
     5     4     5    2
     6     5     7    1
     7     6    75    1
     8     6    76    1
     9     6    77    1
    10     7     9   am
    11     9    10    1
    12    10    11    2
    13    10    43    1
    14    11    14    1
    15    11    15    1
    16    12    13   ar
    17    12    27   ar
    18    12    43    1
    19    13    14    1
    20    13    30   ar
    21    14    17    2
    22    15    16    1
    23    16    17    1
    24    16    18    1
    25    16    22    1
    26    18    19    1
    27    19    20    1
    28    20    21    1
    29    21    22    1
    30    23    24    1
    31    23    88    1
    32    23    89    1
    33    24    25    1
    34    24    26    1
    35    24    90    1
    36    25    91    1
    37    25    92    1
    38    25    93    1
    39    26    94    1
    40    26    95    1
    41    26    96    1
    42    27    28   ar
    43    28    29   ar
    44    29    30   ar
    45    29    31    1
    46    30    33    1
    47    31    32    1
    48    32    33    1
    49    32    35    1
    50    34    97    1
    51    34    98    1
    52    34    99    1
    53    35    61    1
    54    36    37    1
    55    36    60    1
    56    37    38    1
    57    38    39    1
    58    39    40    1
    59    40    41    1
    60    41    42    1
    61    45   100    1
    62    47   101    1
    63    47   102    1
    64    47   103    1
    65    48   104    1
    66    49   105    1
    67    49   106    1
    68    49   107    1
    69    50   108    1
    70    51    59    1
    71    52   109    1
    72    52   110    1
    73    52   111    1
    74    53    54    1
    75    54    55    2
    76    54    56    1
    77    56   112    1
    78    56   113    1
    79    56   114    1
    80    57   115    1
    81    57   116    1
    82    57   117    1
    83    58   118    1
    84    58   119    1
    85    58   120    1
    86    59   121    1
    87    59   122    1
    88    59   123    1
    89    60    61    2
    90     1    47    1
    91     1    62    1
    92     2    63    1
    93     3    64    1
    94     4    65    1
    95     5     6    1
    96     7     8    2
    97     9    78    1
    98    15    79    1
    99    18    80    1
   100    18    81    1
   101    19    82    1
   102    19    83    1
   103    20    23    1
   104    21    84    1
   105    21    85    1
   106    22    86    1
   107    22    87    1
   108    27    45    1
   109    28    34    1
   110    32    58    1
   111    33    46    2
   112    36    51    1
   113    36    66    1
   114    37    52    1
   115    37    67    1
   116    38    53    1
   117    38    68    1
   118    42    48    1
   119    42    72    1
   120    43    44    2
   121    60    73    1
   122    61    74    1
   123    39    69    1
   124    39    57    1
   125    40    70    1
   126    40    50    1
   127    41    71    1
   128    41    49    1
