@<TRIPOS>MOLECULE
*****
 123 128 0 0 0
SMALL
GASTEIGER

@<TRIPOS>ATOM
     1 C         4.992783   2.170784   0.609554 C.3        1 UNL1     0.0009
     2 C         6.407724   3.024157   -0.231121 C.2        1 UNL1     -0.0787
     3 C         7.730422   2.981423   -0.818225 C.2        1 UNL1     -0.0649
     4 C         8.548823   4.220975   -1.630682 C.2        1 UNL1     -0.0542
     5 C         9.595671   4.52182   -2.536596 C.2        1 UNL1     0.0115
     6 C         10.81965   3.926127   -3.285161 C.3        1 UNL1     -0.0348
     7 C         9.607111   5.953394   -3.262856 C.2        1 UNL1     0.2441
     8 O         10.338523   6.870205   -2.914977 O.2        1 UNL1     -0.2702
     9 N         8.913136   5.999631   -4.484499 N.am        1 UNL1     -0.2772
     10 C         7.587202   6.300077   -4.27248 C.2        1 UNL1     0.1049
     11 C         6.806488   5.287284   -3.942391 C.2        1 UNL1     0.0801
     12 C         6.082799   7.900113   -3.074986 C.ar        1 UNL1     0.0753
     13 C         5.391775   6.751971   -2.572129 C.ar        1 UNL1     0.0305
     14 C         5.651212   5.412688   -3.09564 C.2        1 UNL1     0.0924
     15 N         7.044734   3.965025   -3.979773 N.pl3        1 UNL1     -0.3170
     16 C         5.810823   3.287617   -3.681721 C.3        1 UNL1     0.1275
     17 N         5.042926   4.261963   -2.82224 N.2        1 UNL1     -0.2557
     18 C         5.032115   3.170673   -4.988488 C.3        1 UNL1     0.0016
     19 C         5.904886   2.463535   -6.013094 C.3        1 UNL1     0.0026
     20 N         6.261682   1.149483   -5.496379 N.3        1 UNL1     -0.3018
     21 C         6.960928   1.156211   -4.209764 C.3        1 UNL1     0.0026
     22 C         6.064344   1.867082   -3.194532 C.3        1 UNL1     0.0016
     23 C         6.835398   0.282981   -6.50666 C.3        1 UNL1     0.0012
     24 C         5.763776   -0.14314   -7.522438 C.3        1 UNL1     -0.0339
     25 C         6.011282   -1.571374   -8.035219 C.3        1 UNL1     -0.0615
     26 C         4.38076   -0.000507   -6.911126 C.3        1 UNL1     -0.0615
     27 C         5.745375   9.185566   -2.658006 C.ar        1 UNL1     0.1347
     28 C         4.712731   9.449931   -1.776071 C.ar        1 UNL1     0.0342
     29 C         4.078677   8.301248   -1.256775 C.ar        1 UNL1     0.1435
     30 C         4.429944   7.005605   -1.637749 C.ar        1 UNL1     0.0774
     31 O         2.98334   8.395063   -0.471636 O.3        1 UNL1     -0.4436
     32 C         2.372769   7.097845   -0.54444 C.3        1 UNL1     0.3143
     33 C         3.492279   6.154468   -0.935527 C.2        1 UNL1     0.2504
     34 C         4.132269   10.804438   -1.478625 C.3        1 UNL1     -0.0327
     35 O         1.971304   6.740848   0.783954 O.2        1 UNL1     -0.4528
     36 C         -1.076802   4.513874   0.386802 C.3        1 UNL1     0.0854
     37 C         -1.226248   3.162919   -0.413267 C.3        1 UNL1     0.0236
     38 C         -1.768962   1.923831   0.448048 C.3        1 UNL1     0.1131
     39 C         -1.080996   1.564473   1.826394 C.3        1 UNL1     0.0200
     40 C         0.58118   1.564623   1.966422 C.3        1 UNL1     0.0661
     41 C         1.666597   0.787445   0.919773 C.3        1 UNL1     0.0091
     42 C         3.369828   1.246747   0.416337 C.3        1 UNL1     0.0661
     43 C         7.110999   7.683261   -4.12286 C.2        1 UNL1     0.2131
     44 O         7.479122   8.550499   -4.894301 O.2        1 UNL1     -0.2851
     45 O         6.497451   10.245169   -3.161056 O.3        1 UNL1     -0.5056
     46 O         3.59722   4.971347   -0.700868 O.2        1 UNL1     -0.2836
     47 C         5.336763   1.895317   2.098103 C.3        1 UNL1     -0.0566
     48 O         3.924766   -0.109694   0.642674 O.3        1 UNL1     -0.3909
     49 C         0.928494   0.384378   -0.337301 C.3        1 UNL1     -0.0577
     50 O         1.057283   2.857095   2.283541 O.3        1 UNL1     -0.3910
     51 O         -1.267191   4.428449   1.781035 O.3        1 UNL1     -0.3753
     52 C         -0.106041   2.99842   -1.491704 C.3        1 UNL1     -0.0564
     53 O         -2.231896   0.767432   -0.389065 O.3        1 UNL1     -0.4608
     54 C         -2.364243   -0.525653   0.044922 C.2        1 UNL1     0.3042
     55 O         -1.60048   -1.466611   -0.167452 O.2        1 UNL1     -0.2512
     56 C         -3.565785   -0.746624   0.919098 C.3        1 UNL1     0.0332
     57 C         -1.926688   2.270336   2.986022 C.3        1 UNL1     -0.0567
     58 C         1.347255   7.161333   -1.700217 C.3        1 UNL1     0.0210
     59 C         -2.483135   5.004157   2.256332 C.3        1 UNL1     0.0372
     60 C         0.208612   5.232822   0.172362 C.2        1 UNL1     -0.0208
     61 C         1.030667   5.813598   1.047388 C.2        1 UNL1     0.0882
     62 H         4.434966   3.114729   0.586774 H        1 UNL1     0.0365
     63 H         6.051872   4.056552   -0.231036 H        1 UNL1     0.0576
     64 H         8.276571   2.042214   -0.930989 H        1 UNL1     0.0615
     65 H         7.970102   5.116844   -1.389886 H        1 UNL1     0.0622
     66 H         -1.859433   5.166549   -0.024964 H        1 UNL1     0.0645
     67 H         -2.076253   3.346636   -1.093194 H        1 UNL1     0.0362
     68 H         -2.767199   2.305785   0.711023 H        1 UNL1     0.0741
     69 H         -1.341123   0.548158   2.090676 H        1 UNL1     0.0359
     70 H         0.693447   0.99028   2.905883 H        1 UNL1     0.0600
     71 H         1.766842   -0.188072   1.434823 H        1 UNL1     0.0348
     72 H         3.167381   1.802452   1.343441 H        1 UNL1     0.0602
     73 H         0.371269   5.354177   -0.869782 H        1 UNL1     0.0628
     74 H         0.966972   5.690174   2.129029 H        1 UNL1     0.1022
     75 H         10.897006   2.827891   -3.098268 H        1 UNL1     0.0279
     76 H         10.796244   3.977831   -4.371369 H        1 UNL1     0.0279
     77 H         11.779104   4.282653   -2.882621 H        1 UNL1     0.0279
     78 H         8.952366   5.087663   -4.93489 H        1 UNL1     0.1553
     79 H         7.777547   3.546249   -4.522494 H        1 UNL1     0.1484
     80 H         4.10363   2.617222   -4.803089 H        1 UNL1     0.0317
     81 H         4.739297   4.158818   -5.359269 H        1 UNL1     0.0317
     82 H         6.802841   3.050075   -6.257144 H        1 UNL1     0.0428
     83 H         5.331072   2.392374   -6.937606 H        1 UNL1     0.0428
     84 H         7.146233   0.155983   -3.806012 H        1 UNL1     0.0428
     85 H         7.962428   1.600838   -4.29113 H        1 UNL1     0.0428
     86 H         6.5447   1.736468   -2.242594 H        1 UNL1     0.0317
     87 H         5.120794   1.319658   -3.079918 H        1 UNL1     0.0317
     88 H         7.615072   0.845709   -7.036509 H        1 UNL1     0.0429
     89 H         7.321143   -0.590774   -6.053474 H        1 UNL1     0.0429
     90 H         5.785757   0.543413   -8.377058 H        1 UNL1     0.0308
     91 H         6.237997   -2.255741   -7.21221 H        1 UNL1     0.0233
     92 H         5.140326   -1.942367   -8.58057 H        1 UNL1     0.0233
     93 H         6.85484   -1.623843   -8.734141 H        1 UNL1     0.0233
     94 H         3.665903   -0.639336   -7.440948 H        1 UNL1     0.0233
     95 H         4.401117   -0.314013   -5.863623 H        1 UNL1     0.0233
     96 H         4.025904   1.032594   -6.963557 H        1 UNL1     0.0233
     97 H         3.070197   10.850207   -1.700298 H        1 UNL1     0.0280
     98 H         4.229858   11.072783   -0.418567 H        1 UNL1     0.0280
     99 H         4.645368   11.567437   -2.08662 H        1 UNL1     0.0280
     100 H         7.429169   10.127555   -3.10029 H        1 UNL1     0.2922
     101 H         4.41945   1.731335   2.663171 H        1 UNL1     0.0236
     102 H         5.959245   2.669975   2.54465 H        1 UNL1     0.0236
     103 H         5.913522   0.963864   2.22435 H        1 UNL1     0.0236
     104 H         4.221166   -0.155703   1.572728 H        1 UNL1     0.2098
     105 H         0.720828   1.205376   -1.018953 H        1 UNL1     0.0234
     106 H         1.371932   -0.452065   -0.87735 H        1 UNL1     0.0234
     107 H         0.0   -0.0   0.0 H        1 UNL1     0.0234
     108 H         2.021728   2.856773   2.129875 H        1 UNL1     0.2098
     109 H         -0.128685   3.802069   -2.240935 H        1 UNL1     0.0234
     110 H         0.898625   2.926969   -1.061259 H        1 UNL1     0.0234
     111 H         -0.221229   2.063103   -2.055496 H        1 UNL1     0.0234
     112 H         -3.600735   -1.790034   1.246847 H        1 UNL1     0.0342
     113 H         -3.582597   -0.068688   1.771133 H        1 UNL1     0.0342
     114 H         -4.466171   -0.551312   0.320498 H        1 UNL1     0.0342
     115 H         -1.996898   1.638927   3.882449 H        1 UNL1     0.0234
     116 H         -1.53111   3.239274   3.297029 H        1 UNL1     0.0234
     117 H         -2.993075   2.402673   2.734531 H        1 UNL1     0.0234
     118 H         0.306515   7.122848   -1.33363 H        1 UNL1     0.0309
     119 H         1.470609   8.043776   -2.336047 H        1 UNL1     0.0309
     120 H         1.412085   6.295141   -2.367762 H        1 UNL1     0.0309
     121 H         -2.325717   5.297049   3.294017 H        1 UNL1     0.0524
     122 H         -2.764538   5.910432   1.694625 H        1 UNL1     0.0524
     123 H         -3.292174   4.282323   2.1892 H        1 UNL1     0.0524
@<TRIPOS>BOND
     1     1     2    1
     2     1    42    1
     3     2     3    2
     4     3     4    1
     5     4     5    2
     6     5     7    1
     7     6    75    1
     8     6    76    1
     9     6    77    1
    10     7     9   am
    11     9    10    1
    12    10    11    2
    13    10    43    1
    14    11    14    1
    15    11    15    1
    16    12    13   ar
    17    12    27   ar
    18    12    43    1
    19    13    14    1
    20    13    30   ar
    21    14    17    2
    22    15    16    1
    23    16    17    1
    24    16    18    1
    25    16    22    1
    26    18    19    1
    27    19    20    1
    28    20    21    1
    29    21    22    1
    30    23    24    1
    31    23    88    1
    32    23    89    1
    33    24    25    1
    34    24    26    1
    35    24    90    1
    36    25    91    1
    37    25    92    1
    38    25    93    1
    39    26    94    1
    40    26    95    1
    41    26    96    1
    42    27    28   ar
    43    28    29   ar
    44    29    30   ar
    45    29    31    1
    46    30    33    1
    47    31    32    1
    48    32    33    1
    49    32    35    1
    50    34    97    1
    51    34    98    1
    52    34    99    1
    53    35    61    1
    54    36    37    1
    55    36    60    1
    56    37    38    1
    57    38    39    1
    58    39    40    1
    59    40    41    1
    60    41    42    1
    61    45   100    1
    62    47   101    1
    63    47   102    1
    64    47   103    1
    65    48   104    1
    66    49   105    1
    67    49   106    1
    68    49   107    1
    69    50   108    1
    70    51    59    1
    71    52   109    1
    72    52   110    1
    73    52   111    1
    74    53    54    1
    75    54    55    2
    76    54    56    1
    77    56   112    1
    78    56   113    1
    79    56   114    1
    80    57   115    1
    81    57   116    1
    82    57   117    1
    83    58   118    1
    84    58   119    1
    85    58   120    1
    86    59   121    1
    87    59   122    1
    88    59   123    1
    89    60    61    2
    90     1    47    1
    91     1    62    1
    92     2    63    1
    93     3    64    1
    94     4    65    1
    95     5     6    1
    96     7     8    2
    97     9    78    1
    98    15    79    1
    99    18    80    1
   100    18    81    1
   101    19    82    1
   102    19    83    1
   103    20    23    1
   104    21    84    1
   105    21    85    1
   106    22    86    1
   107    22    87    1
   108    27    45    1
   109    28    34    1
   110    32    58    1
   111    33    46    2
   112    36    51    1
   113    36    66    1
   114    37    52    1
   115    37    67    1
   116    38    53    1
   117    38    68    1
   118    42    48    1
   119    42    72    1
   120    43    44    2
   121    60    73    1
   122    61    74    1
   123    39    69    1
   124    39    57    1
   125    40    70    1
   126    40    50    1
   127    41    71    1
   128    41    49    1
