@<TRIPOS>MOLECULE
*****
 123 128 0 0 0
SMALL
GASTEIGER

@<TRIPOS>ATOM
     1 C         -2.660135   -0.707958   4.302787 C.3        1 UNL1     0.0009
     2 C         -2.595807   -1.533631   5.96145 C.2        1 UNL1     -0.0787
     3 C         -2.770428   -2.710594   6.78626 C.2        1 UNL1     -0.0649
     4 C         -2.396512   -2.896248   8.427015 C.2        1 UNL1     -0.0542
     5 C         -2.130975   -3.829964   9.458879 C.2        1 UNL1     0.0115
     6 C         -2.15932   -5.339252   9.825712 C.3        1 UNL1     -0.0348
     7 C         -1.404753   -3.322679   10.797629 C.2        1 UNL1     0.2441
     8 O         -2.005445   -3.116056   11.843096 O.2        1 UNL1     -0.2702
     9 N         -0.000633   -3.381929   10.76464 N.am        1 UNL1     -0.2772
     10 C         0.516785   -2.220437   10.238771 C.2        1 UNL1     0.1049
     11 C         0.554349   -2.144363   8.920809 C.2        1 UNL1     0.0801
     12 C         0.380463   0.270932   10.417173 C.ar        1 UNL1     0.0753
     13 C         0.213886   0.285209   8.995675 C.ar        1 UNL1     0.0305
     14 C         0.427474   -0.9137   8.188179 C.2        1 UNL1     0.0924
     15 N         0.363516   -3.099512   7.994634 N.pl3        1 UNL1     -0.3170
     16 C         0.685317   -2.536625   6.710167 C.3        1 UNL1     0.1275
     17 N         0.415121   -1.060028   6.866301 N.2        1 UNL1     -0.2557
     18 C         2.193063   -2.673599   6.521375 C.3        1 UNL1     0.0016
     19 C         2.571761   -4.137732   6.677869 C.3        1 UNL1     0.0026
     20 N         1.846346   -4.917294   5.684347 N.3        1 UNL1     -0.3018
     21 C         0.38793   -4.80105   5.746629 C.3        1 UNL1     0.0026
     22 C         0.02969   -3.322989   5.582632 C.3        1 UNL1     0.0016
     23 C         2.353027   -6.268322   5.547817 C.3        1 UNL1     0.0012
     24 C         2.181362   -7.043493   6.863642 C.3        1 UNL1     -0.0339
     25 C         1.450386   -6.200634   7.921621 C.3        1 UNL1     -0.0615
     26 C         1.466028   -8.357938   6.604197 C.3        1 UNL1     -0.0615
     27 C         0.293789   1.442317   11.165815 C.ar        1 UNL1     0.1347
     28 C         0.084897   2.688483   10.602358 C.ar        1 UNL1     0.0342
     29 C         -0.124853   2.671675   9.20705 C.ar        1 UNL1     0.1435
     30 C         -0.07687   1.501271   8.448713 C.ar        1 UNL1     0.0774
     31 O         -0.23192   3.815734   8.496647 O.3        1 UNL1     -0.4436
     32 C         0.042297   3.428339   7.141803 C.3        1 UNL1     0.3143
     33 C         -0.265742   1.945794   7.083615 C.2        1 UNL1     0.2504
     34 C         0.229855   4.009466   11.305274 C.3        1 UNL1     -0.0327
     35 O         -0.918596   4.087147   6.307591 O.2        1 UNL1     -0.4528
     36 C         0.805047   4.639833   2.971174 C.3        1 UNL1     0.0854
     37 C         1.463177   3.583256   2.002653 C.3        1 UNL1     0.0236
     38 C         0.90687   3.606439   0.498748 C.3        1 UNL1     0.1131
     39 C         -0.652463   3.556114   0.237563 C.3        1 UNL1     0.0200
     40 C         -1.619913   2.505196   1.098986 C.3        1 UNL1     0.0661
     41 C         -1.336119   0.847321   1.319255 C.3        1 UNL1     0.0091
     42 C         -1.737952   -0.251346   2.732359 C.3        1 UNL1     0.0661
     43 C         0.737446   -1.019216   11.057752 C.2        1 UNL1     0.2131
     44 O         1.277249   -1.103724   12.145965 O.2        1 UNL1     -0.2851
     45 O         0.422613   1.334894   12.549037 O.3        1 UNL1     -0.5056
     46 O         -0.611032   1.284783   6.129837 O.2        1 UNL1     -0.2836
     47 C         -4.132076   -0.42853   3.896227 C.3        1 UNL1     -0.0566
     48 O         -2.318838   -1.319823   1.883805 O.3        1 UNL1     -0.3909
     49 C         0.086406   0.537098   0.909769 C.3        1 UNL1     -0.0577
     50 O         -2.035271   3.090269   2.316727 O.3        1 UNL1     -0.3910
     51 O         -0.299054   5.346783   2.452894 O.3        1 UNL1     -0.3753
     52 C         1.803451   2.248455   2.742564 C.3        1 UNL1     -0.0564
     53 O         1.771496   2.857836   -0.473025 O.3        1 UNL1     -0.4608
     54 C         1.440393   1.678213   -1.086857 C.2        1 UNL1     0.3042
     55 O         0.816298   1.532264   -2.137116 O.2        1 UNL1     -0.2512
     56 C         1.973158   0.463266   -0.382033 C.3        1 UNL1     0.0332
     57 C         -1.160757   5.062319   0.061047 C.3        1 UNL1     -0.0567
     58 C         1.560342   3.631238   6.927561 C.3        1 UNL1     0.0210
     59 C         -0.620328   6.550359   3.148635 C.3        1 UNL1     0.0372
     60 C         0.388531   4.10464   4.296029 C.2        1 UNL1     -0.0208
     61 C         -0.73582   4.290694   4.988823 C.2        1 UNL1     0.0882
     62 H         -2.283825   0.211492   4.767237 H        1 UNL1     0.0365
     63 H         -2.33528   -0.687163   6.600268 H        1 UNL1     0.0576
     64 H         -3.024288   -3.680644   6.353055 H        1 UNL1     0.0615
     65 H         -2.239071   -1.872064   8.775931 H        1 UNL1     0.0622
     66 H         1.606941   5.362822   3.176837 H        1 UNL1     0.0645
     67 H         2.493232   3.954184   1.861378 H        1 UNL1     0.0362
     68 H         1.219797   4.619263   0.20246 H        1 UNL1     0.0741
     69 H         -0.824211   3.251421   -0.786191 H        1 UNL1     0.0359
     70 H         -2.526155   2.516011   0.463636 H        1 UNL1     0.0600
     71 H         -1.903343   0.438319   0.460226 H        1 UNL1     0.0348
     72 H         -2.386493   0.63024   2.839675 H        1 UNL1     0.0602
     73 H         1.207845   3.596436   4.740664 H        1 UNL1     0.0628
     74 H         -1.639593   4.749177   4.586051 H        1 UNL1     0.1022
     75 H         -2.658499   -5.493496   10.812659 H        1 UNL1     0.0279
     76 H         -2.734459   -5.987542   9.168442 H        1 UNL1     0.0279
     77 H         -1.157432   -5.747762   10.023305 H        1 UNL1     0.0279
     78 H         0.295345   -4.148595   10.164058 H        1 UNL1     0.1553
     79 H         0.422791   -4.082419   8.187798 H        1 UNL1     0.1484
     80 H         2.465168   -2.293341   5.529342 H        1 UNL1     0.0317
     81 H         2.735828   -2.062919   7.250846 H        1 UNL1     0.0317
     82 H         2.368014   -4.504527   7.694659 H        1 UNL1     0.0428
     83 H         3.651022   -4.212476   6.541273 H        1 UNL1     0.0428
     84 H         -0.129196   -5.331883   4.941267 H        1 UNL1     0.0428
     85 H         -0.018887   -5.24735   6.66458 H        1 UNL1     0.0428
     86 H         -1.040892   -3.292017   5.499664 H        1 UNL1     0.0317
     87 H         0.37059   -2.961049   4.60494 H        1 UNL1     0.0317
     88 H         1.771322   -6.773855   4.765928 H        1 UNL1     0.0429
     89 H         3.400859   -6.270104   5.220986 H        1 UNL1     0.0429
     90 H         3.170161   -7.312503   7.253671 H        1 UNL1     0.0308
     91 H         1.809787   -6.428607   8.92957 H        1 UNL1     0.0233
     92 H         1.58418   -5.134157   7.725828 H        1 UNL1     0.0233
     93 H         0.368088   -6.378023   7.922093 H        1 UNL1     0.0233
     94 H         0.448042   -8.319829   7.006801 H        1 UNL1     0.0233
     95 H         1.396352   -8.539327   5.527998 H        1 UNL1     0.0233
     96 H         1.990797   -9.196603   7.070273 H        1 UNL1     0.0233
     97 H         -0.725151   4.510655   11.431781 H        1 UNL1     0.0280
     98 H         0.646566   3.897537   12.314769 H        1 UNL1     0.0280
     99 H         0.891122   4.668665   10.719374 H        1 UNL1     0.0280
     100 H         1.165255   1.786857   12.909363 H        1 UNL1     0.2922
     101 H         -4.154721   0.17351   2.988102 H        1 UNL1     0.0236
     102 H         -4.720776   0.017289   4.697265 H        1 UNL1     0.0236
     103 H         -4.671548   -1.353475   3.632333 H        1 UNL1     0.0236
     104 H         -2.561436   -0.91698   1.027164 H        1 UNL1     0.2098
     105 H         0.700898   1.413878   0.721442 H        1 UNL1     0.0234
     106 H         0.609086   -0.156073   1.568744 H        1 UNL1     0.0234
     107 H         0.0   -0.0   0.0 H        1 UNL1     0.0234
     108 H         -1.360519   3.750729   2.566266 H        1 UNL1     0.2098
     109 H         2.617929   2.371999   3.469939 H        1 UNL1     0.0234
     110 H         0.936315   1.79708   3.236607 H        1 UNL1     0.0234
     111 H         2.144556   1.473598   2.043142 H        1 UNL1     0.0234
     112 H         1.338732   -0.401319   -0.599617 H        1 UNL1     0.0342
     113 H         3.011237   0.261391   -0.641805 H        1 UNL1     0.0342
     114 H         1.93076   0.648259   0.700161 H        1 UNL1     0.0342
     115 H         -0.355477   5.788508   0.23814 H        1 UNL1     0.0234
     116 H         -1.584705   5.275432   -0.922264 H        1 UNL1     0.0234
     117 H         -1.896931   5.370362   0.823345 H        1 UNL1     0.0234
     118 H         2.071119   3.947733   7.853814 H        1 UNL1     0.0309
     119 H         2.060383   2.743083   6.528384 H        1 UNL1     0.0309
     120 H         1.781059   4.444065   6.227059 H        1 UNL1     0.0309
     121 H         -1.692258   6.71568   3.043793 H        1 UNL1     0.0524
     122 H         -0.398822   6.482243   4.22675 H        1 UNL1     0.0524
     123 H         -0.069168   7.386441   2.727586 H        1 UNL1     0.0524
@<TRIPOS>BOND
     1     1     2    1
     2     1    42    1
     3     2     3    2
     4     3     4    1
     5     4     5    2
     6     5     7    1
     7     6    75    1
     8     6    76    1
     9     6    77    1
    10     7     9   am
    11     9    10    1
    12    10    11    2
    13    10    43    1
    14    11    14    1
    15    11    15    1
    16    12    13   ar
    17    12    27   ar
    18    12    43    1
    19    13    14    1
    20    13    30   ar
    21    14    17    2
    22    15    16    1
    23    16    17    1
    24    16    18    1
    25    16    22    1
    26    18    19    1
    27    19    20    1
    28    20    21    1
    29    21    22    1
    30    23    24    1
    31    23    88    1
    32    23    89    1
    33    24    25    1
    34    24    26    1
    35    24    90    1
    36    25    91    1
    37    25    92    1
    38    25    93    1
    39    26    94    1
    40    26    95    1
    41    26    96    1
    42    27    28   ar
    43    28    29   ar
    44    29    30   ar
    45    29    31    1
    46    30    33    1
    47    31    32    1
    48    32    33    1
    49    32    35    1
    50    34    97    1
    51    34    98    1
    52    34    99    1
    53    35    61    1
    54    36    37    1
    55    36    60    1
    56    37    38    1
    57    38    39    1
    58    39    40    1
    59    40    41    1
    60    41    42    1
    61    45   100    1
    62    47   101    1
    63    47   102    1
    64    47   103    1
    65    48   104    1
    66    49   105    1
    67    49   106    1
    68    49   107    1
    69    50   108    1
    70    51    59    1
    71    52   109    1
    72    52   110    1
    73    52   111    1
    74    53    54    1
    75    54    55    2
    76    54    56    1
    77    56   112    1
    78    56   113    1
    79    56   114    1
    80    57   115    1
    81    57   116    1
    82    57   117    1
    83    58   118    1
    84    58   119    1
    85    58   120    1
    86    59   121    1
    87    59   122    1
    88    59   123    1
    89    60    61    2
    90     1    47    1
    91     1    62    1
    92     2    63    1
    93     3    64    1
    94     4    65    1
    95     5     6    1
    96     7     8    2
    97     9    78    1
    98    15    79    1
    99    18    80    1
   100    18    81    1
   101    19    82    1
   102    19    83    1
   103    20    23    1
   104    21    84    1
   105    21    85    1
   106    22    86    1
   107    22    87    1
   108    27    45    1
   109    28    34    1
   110    32    58    1
   111    33    46    2
   112    36    51    1
   113    36    66    1
   114    37    52    1
   115    37    67    1
   116    38    53    1
   117    38    68    1
   118    42    48    1
   119    42    72    1
   120    43    44    2
   121    60    73    1
   122    61    74    1
   123    39    69    1
   124    39    57    1
   125    40    70    1
   126    40    50    1
   127    41    71    1
   128    41    49    1
