@<TRIPOS>MOLECULE
*****
 123 128 0 0 0
SMALL
GASTEIGER

@<TRIPOS>ATOM
     1 C         0.047781   -4.597266   -2.901929 C.3        1 UNL1     0.0009
     2 C         0.748339   -5.411264   -4.413109 C.2        1 UNL1     -0.0787
     3 C         0.57806   -5.927237   -5.755056 C.2        1 UNL1     -0.0649
     4 C         1.769294   -6.525382   -6.798867 C.2        1 UNL1     -0.0542
     5 C         2.092804   -6.813529   -8.147715 C.2        1 UNL1     0.0115
     6 C         1.509856   -6.926358   -9.583252 C.3        1 UNL1     -0.0348
     7 C         3.634219   -7.005289   -8.553001 C.2        1 UNL1     0.2441
     8 O         4.142808   -8.102889   -8.73504 O.2        1 UNL1     -0.2702
     9 N         4.292851   -5.825003   -8.939368 N.am        1 UNL1     -0.2772
     10 C         4.829509   -5.193055   -7.841204 C.2        1 UNL1     0.1049
     11 C         4.004726   -4.428458   -7.148856 C.2        1 UNL1     0.0801
     12 C         6.22518   -5.597581   -5.805082 C.ar        1 UNL1     0.0753
     13 C         5.193888   -4.938368   -5.063136 C.ar        1 UNL1     0.0305
     14 C         4.112842   -4.216825   -5.730794 C.2        1 UNL1     0.0924
     15 N         2.770305   -3.992421   -7.453166 N.pl3        1 UNL1     -0.3170
     16 C         2.375128   -3.049894   -6.440381 C.3        1 UNL1     0.1275
     17 N         3.140016   -3.474023   -5.210428 N.2        1 UNL1     -0.2557
     18 C         2.93979   -1.690792   -6.8425 C.3        1 UNL1     0.0016
     19 C         2.446619   -1.353616   -8.2406 C.3        1 UNL1     0.0026
     20 N         0.99041   -1.333906   -8.230861 N.3        1 UNL1     -0.3018
     21 C         0.354655   -2.579771   -7.797266 C.3        1 UNL1     0.0026
     22 C         0.860692   -2.896949   -6.388998 C.3        1 UNL1     0.0016
     23 C         0.426526   -0.735558   -9.424451 C.3        1 UNL1     0.0012
     24 C         -0.594097   0.351187   -9.051529 C.3        1 UNL1     -0.0339
     25 C         -1.973173   0.06249   -9.667044 C.3        1 UNL1     -0.0615
     26 C         -0.674651   0.493838   -7.541581 C.3        1 UNL1     -0.0615
     27 C         7.316274   -6.179383   -5.163881 C.ar        1 UNL1     0.1347
     28 C         7.504714   -6.131462   -3.79412 C.ar        1 UNL1     0.0342
     29 C         6.452308   -5.520129   -3.080064 C.ar        1 UNL1     0.1435
     30 C         5.335594   -4.96485   -3.706032 C.ar        1 UNL1     0.0774
     31 O         6.538646   -5.297967   -1.750329 O.3        1 UNL1     -0.4436
     32 C         5.559004   -4.281905   -1.488042 C.3        1 UNL1     0.3143
     33 C         4.563142   -4.388828   -2.625161 C.2        1 UNL1     0.2504
     34 C         8.763457   -6.508241   -3.06357 C.3        1 UNL1     -0.0327
     35 O         4.8668   -4.656545   -0.290649 O.2        1 UNL1     -0.4528
     36 C         3.799982   -1.406559   1.354822 C.3        1 UNL1     0.0854
     37 C         2.913326   -0.239268   0.772761 C.3        1 UNL1     0.0236
     38 C         1.633673   0.1443   1.659953 C.3        1 UNL1     0.1131
     39 C         0.639573   -0.990398   2.135868 C.3        1 UNL1     0.0200
     40 C         0.159467   -2.190045   1.080981 C.3        1 UNL1     0.0661
     41 C         -0.44366   -1.951931   -0.486548 C.3        1 UNL1     0.0091
     42 C         -0.292006   -2.991288   -1.99059 C.3        1 UNL1     0.0661
     43 C         6.139952   -5.563333   -7.286238 C.2        1 UNL1     0.2131
     44 O         7.099008   -5.722531   -8.019453 O.2        1 UNL1     -0.2851
     45 O         8.252413   -6.841051   -5.95589 O.3        1 UNL1     -0.5056
     46 O         3.390585   -4.087277   -2.630768 O.2        1 UNL1     -0.2836
     47 C         -0.821533   -5.603793   -2.101193 C.3        1 UNL1     -0.0566
     48 O         -1.733497   -2.911531   -2.329496 O.3        1 UNL1     -0.3909
     49 C         -0.163978   -0.525876   -0.905641 C.3        1 UNL1     -0.0577
     50 O         1.082131   -3.26074   1.086208 O.3        1 UNL1     -0.3910
     51 O         3.2732   -2.080204   2.475596 O.3        1 UNL1     -0.3753
     52 C         2.862202   -0.271084   -0.789712 C.3        1 UNL1     -0.0564
     53 O         1.015931   1.459856   1.285742 O.3        1 UNL1     -0.4608
     54 C         0.179376   2.199944   2.079704 C.2        1 UNL1     0.3042
     55 O         0.351678   3.351685   2.476748 O.2        1 UNL1     -0.2512
     56 C         -1.100534   1.494269   2.426927 C.3        1 UNL1     0.0332
     57 C         1.076228   -1.42639   3.611475 C.3        1 UNL1     -0.0567
     58 C         6.295303   -2.926237   -1.595549 C.3        1 UNL1     0.0210
     59 C         3.004916   -3.466462   2.270224 C.3        1 UNL1     0.0372
     60 C         4.189149   -2.451942   0.369488 C.2        1 UNL1     -0.0208
     61 C         4.184012   -3.781647   0.472463 C.2        1 UNL1     0.0882
     62 H         1.047064   -4.618617   -2.450609 H        1 UNL1     0.0365
     63 H         1.76652   -5.620248   -4.078291 H        1 UNL1     0.0576
     64 H         -0.365404   -5.818599   -6.29467 H        1 UNL1     0.0615
     65 H         2.636445   -6.670363   -6.148858 H        1 UNL1     0.0622
     66 H         4.735477   -0.916812   1.659853 H        1 UNL1     0.0645
     67 H         3.541618   0.660326   0.893341 H        1 UNL1     0.0362
     68 H         2.140408   0.49036   2.573727 H        1 UNL1     0.0741
     69 H         -0.299497   -0.534029   2.419208 H        1 UNL1     0.0359
     70 H         -0.721324   -2.581267   1.625237 H        1 UNL1     0.0600
     71 H         -1.5292   -1.905879   -0.271049 H        1 UNL1     0.0348
     72 H         -0.073201   -3.653965   -1.140708 H        1 UNL1     0.0602
     73 H         4.62922   -1.987005   -0.477518 H        1 UNL1     0.0628
     74 H         3.70233   -4.335846   1.27874 H        1 UNL1     0.1022
     75 H         0.931406   -7.874647   -9.698046 H        1 UNL1     0.0279
     76 H         0.781912   -6.171502   -9.87197 H        1 UNL1     0.0279
     77 H         2.288457   -7.053222   -10.349664 H        1 UNL1     0.0279
     78 H         3.625925   -5.184981   -9.365583 H        1 UNL1     0.1553
     79 H         2.399421   -3.976175   -8.385429 H        1 UNL1     0.1484
     80 H         2.617136   -0.939226   -6.111878 H        1 UNL1     0.0317
     81 H         4.034809   -1.699856   -6.820093 H        1 UNL1     0.0317
     82 H         2.827866   -2.063774   -8.989092 H        1 UNL1     0.0428
     83 H         2.862414   -0.381735   -8.508203 H        1 UNL1     0.0428
     84 H         -0.735196   -2.51315   -7.722447 H        1 UNL1     0.0428
     85 H         0.523529   -3.3957   -8.513546 H        1 UNL1     0.0428
     86 H         0.278249   -3.735106   -6.053974 H        1 UNL1     0.0317
     87 H         0.572698   -2.09532   -5.697951 H        1 UNL1     0.0317
     88 H         1.242948   -0.268682   -9.990823 H        1 UNL1     0.0429
     89 H         -0.024028   -1.494924   -10.076477 H        1 UNL1     0.0429
     90 H         -0.240602   1.319412   -9.42542 H        1 UNL1     0.0308
     91 H         -2.464353   -0.777173   -9.166234 H        1 UNL1     0.0233
     92 H         -2.616285   0.943444   -9.604288 H        1 UNL1     0.0233
     93 H         -1.909929   -0.19475   -10.73131 H        1 UNL1     0.0233
     94 H         -0.397098   -0.448898   -7.057794 H        1 UNL1     0.0233
     95 H         0.021994   1.265177   -7.201459 H        1 UNL1     0.0233
     96 H         -1.684412   0.763339   -7.219525 H        1 UNL1     0.0233
     97 H         9.291518   -7.320608   -3.553919 H        1 UNL1     0.0280
     98 H         9.476378   -5.675056   -3.010622 H        1 UNL1     0.0280
     99 H         8.513727   -6.827413   -2.038456 H        1 UNL1     0.0280
     100 H         8.104922   -6.765361   -6.882248 H        1 UNL1     0.2922
     101 H         -1.500053   -5.061339   -1.443158 H        1 UNL1     0.0236
     102 H         -0.232308   -6.343929   -1.560827 H        1 UNL1     0.0236
     103 H         -1.481481   -6.194946   -2.757851 H        1 UNL1     0.0236
     104 H         -1.989553   -3.764522   -2.731755 H        1 UNL1     0.2098
     105 H         0.721022   -0.405252   -1.525348 H        1 UNL1     0.0234
     106 H         -1.012146   -0.008175   -1.353438 H        1 UNL1     0.0234
     107 H         0.0   0.0   0.0 H        1 UNL1     0.0234
     108 H         1.94955   -2.894933   1.346089 H        1 UNL1     0.2098
     109 H         2.856122   0.737399   -1.226333 H        1 UNL1     0.0234
     110 H         3.672569   -0.858265   -1.234985 H        1 UNL1     0.0234
     111 H         1.948475   -0.758606   -1.154912 H        1 UNL1     0.0234
     112 H         -1.399393   1.74688   3.448796 H        1 UNL1     0.0342
     113 H         -1.897366   1.719735   1.719772 H        1 UNL1     0.0342
     114 H         -0.917032   0.411705   2.387586 H        1 UNL1     0.0342
     115 H         1.314105   -0.557508   4.240481 H        1 UNL1     0.0234
     116 H         0.326296   -2.018619   4.139601 H        1 UNL1     0.0234
     117 H         2.030683   -1.979561   3.642422 H        1 UNL1     0.0234
     118 H         6.345878   -2.563355   -2.637069 H        1 UNL1     0.0309
     119 H         5.854672   -2.146884   -0.965744 H        1 UNL1     0.0309
     120 H         7.34812   -2.995158   -1.300706 H        1 UNL1     0.0309
     121 H         3.929391   -4.012329   2.456589 H        1 UNL1     0.0524
     122 H         2.244367   -3.853369   2.968727 H        1 UNL1     0.0524
     123 H         2.667626   -3.637158   1.251797 H        1 UNL1     0.0524
@<TRIPOS>BOND
     1     1     2    1
     2     1    42    1
     3     2     3    2
     4     3     4    1
     5     4     5    2
     6     5     7    1
     7     6    75    1
     8     6    76    1
     9     6    77    1
    10     7     9   am
    11     9    10    1
    12    10    11    2
    13    10    43    1
    14    11    14    1
    15    11    15    1
    16    12    13   ar
    17    12    27   ar
    18    12    43    1
    19    13    14    1
    20    13    30   ar
    21    14    17    2
    22    15    16    1
    23    16    17    1
    24    16    18    1
    25    16    22    1
    26    18    19    1
    27    19    20    1
    28    20    21    1
    29    21    22    1
    30    23    24    1
    31    23    88    1
    32    23    89    1
    33    24    25    1
    34    24    26    1
    35    24    90    1
    36    25    91    1
    37    25    92    1
    38    25    93    1
    39    26    94    1
    40    26    95    1
    41    26    96    1
    42    27    28   ar
    43    28    29   ar
    44    29    30   ar
    45    29    31    1
    46    30    33    1
    47    31    32    1
    48    32    33    1
    49    32    35    1
    50    34    97    1
    51    34    98    1
    52    34    99    1
    53    35    61    1
    54    36    37    1
    55    36    60    1
    56    37    38    1
    57    38    39    1
    58    39    40    1
    59    40    41    1
    60    41    42    1
    61    45   100    1
    62    47   101    1
    63    47   102    1
    64    47   103    1
    65    48   104    1
    66    49   105    1
    67    49   106    1
    68    49   107    1
    69    50   108    1
    70    51    59    1
    71    52   109    1
    72    52   110    1
    73    52   111    1
    74    53    54    1
    75    54    55    2
    76    54    56    1
    77    56   112    1
    78    56   113    1
    79    56   114    1
    80    57   115    1
    81    57   116    1
    82    57   117    1
    83    58   118    1
    84    58   119    1
    85    58   120    1
    86    59   121    1
    87    59   122    1
    88    59   123    1
    89    60    61    2
    90     1    47    1
    91     1    62    1
    92     2    63    1
    93     3    64    1
    94     4    65    1
    95     5     6    1
    96     7     8    2
    97     9    78    1
    98    15    79    1
    99    18    80    1
   100    18    81    1
   101    19    82    1
   102    19    83    1
   103    20    23    1
   104    21    84    1
   105    21    85    1
   106    22    86    1
   107    22    87    1
   108    27    45    1
   109    28    34    1
   110    32    58    1
   111    33    46    2
   112    36    51    1
   113    36    66    1
   114    37    52    1
   115    37    67    1
   116    38    53    1
   117    38    68    1
   118    42    48    1
   119    42    72    1
   120    43    44    2
   121    60    73    1
   122    61    74    1
   123    39    69    1
   124    39    57    1
   125    40    70    1
   126    40    50    1
   127    41    71    1
   128    41    49    1
