@<TRIPOS>MOLECULE
*****
 123 128 0 0 0
SMALL
GASTEIGER

@<TRIPOS>ATOM
     1 C         -3.824622   0.470962   -1.766768 C.3        1 UNL1     0.0009
     2 C         -4.783889   -0.782764   -2.738887 C.2        1 UNL1     -0.0787
     3 C         -5.274896   -1.281864   -4.006111 C.2        1 UNL1     -0.0649
     4 C         -6.113834   -2.722223   -4.302598 C.2        1 UNL1     -0.0542
     5 C         -6.480279   -3.670366   -5.289422 C.2        1 UNL1     0.0115
     6 C         -6.495289   -3.952223   -6.817052 C.3        1 UNL1     -0.0348
     7 C         -6.981689   -5.122398   -4.823395 C.2        1 UNL1     0.2441
     8 O         -8.161235   -5.446464   -4.810067 O.2        1 UNL1     -0.2702
     9 N         -5.962335   -6.079937   -4.681304 N.am        1 UNL1     -0.2772
     10 C         -5.434361   -6.034423   -3.411464 C.2        1 UNL1     0.1049
     11 C         -4.510572   -5.115079   -3.197822 C.2        1 UNL1     0.0801
     12 C         -6.079744   -6.002663   -0.994895 C.ar        1 UNL1     0.0753
     13 C         -5.217273   -4.868364   -0.860292 C.ar        1 UNL1     0.0305
     14 C         -4.304239   -4.470238   -1.929365 C.2        1 UNL1     0.0924
     15 N         -3.841389   -4.343531   -4.071569 N.pl3        1 UNL1     -0.3170
     16 C         -2.82437   -3.633893   -3.341953 C.3        1 UNL1     0.1275
     17 N         -3.37475   -3.519011   -1.941379 N.2        1 UNL1     -0.2557
     18 C         -1.61129   -4.554192   -3.24609 C.3        1 UNL1     0.0016
     19 C         -1.202774   -4.968277   -4.65081 C.3        1 UNL1     0.0026
     20 N         -0.892676   -3.771008   -5.419845 N.3        1 UNL1     -0.3018
     21 C         -1.980162   -2.795087   -5.516391 C.3        1 UNL1     0.0026
     22 C         -2.371506   -2.389545   -4.094322 C.3        1 UNL1     0.0016
     23 C         -0.211191   -4.061671   -6.665532 C.3        1 UNL1     0.0012
     24 C         -0.398944   -5.537567   -7.050549 C.3        1 UNL1     -0.0339
     25 C         -0.454016   -5.718063   -8.576473 C.3        1 UNL1     -0.0615
     26 C         0.698639   -6.382128   -6.427004 C.3        1 UNL1     -0.0615
     27 C         -6.858253   -6.447909   0.070844 C.ar        1 UNL1     0.1347
     28 C         -6.829052   -5.866564   1.325928 C.ar        1 UNL1     0.0342
     29 C         -6.009682   -4.721698   1.421203 C.ar        1 UNL1     0.1435
     30 C         -5.251826   -4.242492   0.351981 C.ar        1 UNL1     0.0774
     31 O         -5.789966   -4.108829   2.604893 O.3        1 UNL1     -0.4436
     32 C         -4.595127   -3.340163   2.399016 C.3        1 UNL1     0.3143
     33 C         -4.51761   -3.1219   0.901496 C.2        1 UNL1     0.2504
     34 C         -7.43885   -6.436812   2.576153 C.3        1 UNL1     -0.0327
     35 O         -4.80667   -2.055495   2.997456 O.2        1 UNL1     -0.4528
     36 C         -1.38564   -0.855077   4.121571 C.3        1 UNL1     0.0854
     37 C         -0.073432   -0.648137   3.27139 C.3        1 UNL1     0.0236
     38 C         0.570647   0.817297   3.368398 C.3        1 UNL1     0.1131
     39 C         -0.335786   2.090905   3.126382 C.3        1 UNL1     0.0200
     40 C         -1.430636   2.121989   1.868298 C.3        1 UNL1     0.0661
     41 C         -1.099688   1.723452   0.252981 C.3        1 UNL1     0.0091
     42 C         -2.170097   0.96371   -1.028589 C.3        1 UNL1     0.0661
     43 C         -6.050654   -6.743678   -2.280317 C.2        1 UNL1     0.2131
     44 O         -6.408681   -7.901571   -2.397953 O.2        1 UNL1     -0.2851
     45 O         -7.704865   -7.530871   -0.156924 O.3        1 UNL1     -0.5056
     46 O         -3.988209   -2.215227   0.29856 O.2        1 UNL1     -0.2836
     47 C         -4.625672   1.7962   -1.657021 C.3        1 UNL1     -0.0566
     48 O         -1.809159   1.94889   -2.076568 O.3        1 UNL1     -0.3909
     49 C         0.235623   1.016137   0.188591 C.3        1 UNL1     -0.0577
     50 O         -2.663752   1.555061   2.262938 O.3        1 UNL1     -0.3910
     51 O         -1.924268   0.304558   4.715336 O.3        1 UNL1     -0.3753
     52 C         -0.117055   -1.449766   1.929586 C.3        1 UNL1     -0.0564
     53 O         1.977461   0.890455   2.85086 O.3        1 UNL1     -0.4608
     54 C         2.51399   1.940024   2.151952 C.2        1 UNL1     0.3042
     55 O         3.007208   1.912667   1.025086 O.2        1 UNL1     -0.2512
     56 C         2.410433   3.255854   2.869295 C.3        1 UNL1     0.0332
     57 C         -0.828715   2.610828   4.556373 C.3        1 UNL1     -0.0567
     58 C         -3.415398   -4.240644   2.833644 C.3        1 UNL1     0.0210
     59 C         -1.763517   0.383087   6.130913 C.3        1 UNL1     0.0372
     60 C         -2.501838   -1.526834   3.401845 C.2        1 UNL1     -0.0208
     61 C         -3.802127   -1.233591   3.357112 C.2        1 UNL1     0.0882
     62 H         -4.038444   -0.100343   -0.855394 H        1 UNL1     0.0365
     63 H         -5.18701   -1.400012   -1.933302 H        1 UNL1     0.0576
     64 H         -4.987973   -0.819667   -4.953295 H        1 UNL1     0.0615
     65 H         -6.419534   -3.055406   -3.307098 H        1 UNL1     0.0622
     66 H         -1.088093   -1.543105   4.925394 H        1 UNL1     0.0645
     67 H         0.684312   -1.256056   3.795621 H        1 UNL1     0.0362
     68 H         0.821816   0.837271   4.439863 H        1 UNL1     0.0741
     69 H         0.30289   2.935807   2.905832 H        1 UNL1     0.0359
     70 H         -1.630256   3.20941   1.816062 H        1 UNL1     0.0600
     71 H         -0.83478   2.72364   -0.142498 H        1 UNL1     0.0348
     72 H         -2.850719   1.362132   -0.262215 H        1 UNL1     0.0602
     73 H         -2.14642   -2.429919   2.971306 H        1 UNL1     0.0628
     74 H         -4.237287   -0.302837   3.722586 H        1 UNL1     0.1022
     75 H         -5.736838   -4.728552   -7.079919 H        1 UNL1     0.0279
     76 H         -7.412056   -4.373214   -7.223714 H        1 UNL1     0.0279
     77 H         -6.143768   -3.095843   -7.410977 H        1 UNL1     0.0279
     78 H         -5.208327   -5.876263   -5.334041 H        1 UNL1     0.1553
     79 H         -3.764963   -4.548579   -5.050879 H        1 UNL1     0.1484
     80 H         -0.799935   -4.02397   -2.732931 H        1 UNL1     0.0317
     81 H         -1.838401   -5.439349   -2.642293 H        1 UNL1     0.0317
     82 H         -1.985512   -5.563568   -5.143619 H        1 UNL1     0.0428
     83 H         -0.33742   -5.625392   -4.559091 H        1 UNL1     0.0428
     84 H         -1.69628   -1.871422   -6.030263 H        1 UNL1     0.0428
     85 H         -2.823678   -3.179993   -6.106005 H        1 UNL1     0.0428
     86 H         -3.071602   -1.582421   -4.205703 H        1 UNL1     0.0317
     87 H         -1.518592   -1.918058   -3.590999 H        1 UNL1     0.0317
     88 H         -0.654631   -3.436335   -7.451414 H        1 UNL1     0.0429
     89 H         0.853167   -3.799668   -6.608341 H        1 UNL1     0.0429
     90 H         -1.339087   -5.903917   -6.621443 H        1 UNL1     0.0308
     91 H         -0.120272   -6.717533   -8.871052 H        1 UNL1     0.0233
     92 H         -1.468151   -5.554466   -8.948459 H        1 UNL1     0.0233
     93 H         0.185095   -5.000564   -9.105215 H        1 UNL1     0.0233
     94 H         1.569659   -5.759209   -6.1965 H        1 UNL1     0.0233
     95 H         0.343874   -6.824827   -5.49206 H        1 UNL1     0.0233
     96 H         1.015633   -7.184224   -7.099407 H        1 UNL1     0.0233
     97 H         -8.348847   -6.992   2.369024 H        1 UNL1     0.0280
     98 H         -6.765174   -7.141523   3.08093 H        1 UNL1     0.0280
     99 H         -7.684143   -5.618955   3.273316 H        1 UNL1     0.0280
     100 H         -7.93136   -7.667602   -1.060045 H        1 UNL1     0.2922
     101 H         -4.421652   2.422131   -2.525493 H        1 UNL1     0.0236
     102 H         -4.45164   2.326012   -0.721075 H        1 UNL1     0.0236
     103 H         -5.714804   1.625296   -1.684875 H        1 UNL1     0.0236
     104 H         -1.096329   2.51308   -1.718052 H        1 UNL1     0.2098
     105 H         0.888024   1.360161   -0.610053 H        1 UNL1     0.0234
     106 H         0.779318   0.982906   1.132634 H        1 UNL1     0.0234
     107 H         0.0   -0.0   0.0 H        1 UNL1     0.0234
     108 H         -3.273802   1.630456   1.504042 H        1 UNL1     0.2098
     109 H         -0.207356   -2.532502   2.094632 H        1 UNL1     0.0234
     110 H         -0.911142   -1.114669   1.253658 H        1 UNL1     0.0234
     111 H         0.803664   -1.313712   1.346738 H        1 UNL1     0.0234
     112 H         1.800177   3.141496   3.770325 H        1 UNL1     0.0342
     113 H         3.388733   3.669252   3.109869 H        1 UNL1     0.0342
     114 H         1.901618   3.969004   2.206204 H        1 UNL1     0.0342
     115 H         -0.917813   3.705571   4.584422 H        1 UNL1     0.0234
     116 H         -1.787138   2.195144   4.873677 H        1 UNL1     0.0234
     117 H         -0.09741   2.435781   5.364143 H        1 UNL1     0.0234
     118 H         -3.225151   -5.052633   2.110121 H        1 UNL1     0.0309
     119 H         -2.487773   -3.683472   2.998789 H        1 UNL1     0.0309
     120 H         -3.617519   -4.77664   3.767433 H        1 UNL1     0.0309
     121 H         -2.57816   -0.178855   6.58691 H        1 UNL1     0.0524
     122 H         -0.81709   -0.069856   6.470259 H        1 UNL1     0.0524
     123 H         -1.794973   1.419196   6.455845 H        1 UNL1     0.0524
@<TRIPOS>BOND
     1     1     2    1
     2     1    42    1
     3     2     3    2
     4     3     4    1
     5     4     5    2
     6     5     7    1
     7     6    75    1
     8     6    76    1
     9     6    77    1
    10     7     9   am
    11     9    10    1
    12    10    11    2
    13    10    43    1
    14    11    14    1
    15    11    15    1
    16    12    13   ar
    17    12    27   ar
    18    12    43    1
    19    13    14    1
    20    13    30   ar
    21    14    17    2
    22    15    16    1
    23    16    17    1
    24    16    18    1
    25    16    22    1
    26    18    19    1
    27    19    20    1
    28    20    21    1
    29    21    22    1
    30    23    24    1
    31    23    88    1
    32    23    89    1
    33    24    25    1
    34    24    26    1
    35    24    90    1
    36    25    91    1
    37    25    92    1
    38    25    93    1
    39    26    94    1
    40    26    95    1
    41    26    96    1
    42    27    28   ar
    43    28    29   ar
    44    29    30   ar
    45    29    31    1
    46    30    33    1
    47    31    32    1
    48    32    33    1
    49    32    35    1
    50    34    97    1
    51    34    98    1
    52    34    99    1
    53    35    61    1
    54    36    37    1
    55    36    60    1
    56    37    38    1
    57    38    39    1
    58    39    40    1
    59    40    41    1
    60    41    42    1
    61    45   100    1
    62    47   101    1
    63    47   102    1
    64    47   103    1
    65    48   104    1
    66    49   105    1
    67    49   106    1
    68    49   107    1
    69    50   108    1
    70    51    59    1
    71    52   109    1
    72    52   110    1
    73    52   111    1
    74    53    54    1
    75    54    55    2
    76    54    56    1
    77    56   112    1
    78    56   113    1
    79    56   114    1
    80    57   115    1
    81    57   116    1
    82    57   117    1
    83    58   118    1
    84    58   119    1
    85    58   120    1
    86    59   121    1
    87    59   122    1
    88    59   123    1
    89    60    61    2
    90     1    47    1
    91     1    62    1
    92     2    63    1
    93     3    64    1
    94     4    65    1
    95     5     6    1
    96     7     8    2
    97     9    78    1
    98    15    79    1
    99    18    80    1
   100    18    81    1
   101    19    82    1
   102    19    83    1
   103    20    23    1
   104    21    84    1
   105    21    85    1
   106    22    86    1
   107    22    87    1
   108    27    45    1
   109    28    34    1
   110    32    58    1
   111    33    46    2
   112    36    51    1
   113    36    66    1
   114    37    52    1
   115    37    67    1
   116    38    53    1
   117    38    68    1
   118    42    48    1
   119    42    72    1
   120    43    44    2
   121    60    73    1
   122    61    74    1
   123    39    69    1
   124    39    57    1
   125    40    70    1
   126    40    50    1
   127    41    71    1
   128    41    49    1
