@<TRIPOS>MOLECULE
*****
 123 128 0 0 0
SMALL
GASTEIGER

@<TRIPOS>ATOM
     1 C         0.014146   -0.599342   -5.445396 C.3        1 UNL1     0.0009
     2 C         -0.858664   -1.325039   -6.911208 C.2        1 UNL1     -0.0787
     3 C         -0.966129   -2.349282   -7.928765 C.2        1 UNL1     -0.0649
     4 C         -2.20555   -2.564401   -9.061866 C.2        1 UNL1     -0.0542
     5 C         -2.828467   -3.484707   -9.940552 C.2        1 UNL1     0.0115
     6 C         -2.697026   -4.891462   -10.586374 C.3        1 UNL1     -0.0348
     7 C         -4.306601   -3.165664   -10.479366 C.2        1 UNL1     0.2441
     8 O         -4.526604   -2.733637   -11.602521 O.2        1 UNL1     -0.2702
     9 N         -5.346789   -3.659686   -9.673077 N.am        1 UNL1     -0.2772
     10 C         -5.679122   -2.742545   -8.70265 C.2        1 UNL1     0.1049
     11 C         -4.925746   -2.744083   -7.617917 C.2        1 UNL1     0.0801
     12 C         -6.23128   -0.326608   -8.362492 C.ar        1 UNL1     0.0753
     13 C         -5.245519   -0.328271   -7.324763 C.ar        1 UNL1     0.0305
     14 C         -4.655523   -1.570851   -6.831862 C.2        1 UNL1     0.0924
     15 N         -4.008343   -3.635199   -7.204624 N.pl3        1 UNL1     -0.3170
     16 C         -3.599643   -3.261308   -5.876684 C.3        1 UNL1     0.1275
     17 N         -3.81268   -1.768204   -5.822112 N.2        1 UNL1     -0.2557
     18 C         -4.6075   -3.86865   -4.905571 C.3        1 UNL1     0.0016
     19 C         -4.669624   -5.368903   -5.144261 C.3        1 UNL1     0.0026
     20 N         -3.341439   -5.930419   -4.940171 N.3        1 UNL1     -0.3018
     21 C         -2.290047   -5.364042   -5.787615 C.3        1 UNL1     0.0026
     22 C         -2.242077   -3.857277   -5.528283 C.3        1 UNL1     0.0016
     23 C         -3.34867   -7.376859   -4.848519 C.3        1 UNL1     0.0012
     24 C         -3.249354   -8.005689   -6.247256 C.3        1 UNL1     -0.0339
     25 C         -3.96646   -9.364535   -6.305148 C.3        1 UNL1     -0.0615
     26 C         -3.790104   -7.04336   -7.290468 C.3        1 UNL1     -0.0615
     27 C         -6.876553   0.84764   -8.743126 C.ar        1 UNL1     0.1347
     28 C         -6.64959   2.069039   -8.134257 C.ar        1 UNL1     0.0342
     29 C         -5.639863   2.052513   -7.148689 C.ar        1 UNL1     0.1435
     30 C         -4.959358   0.890759   -6.782 C.ar        1 UNL1     0.0774
     31 O         -5.379196   3.13842   -6.388516 O.3        1 UNL1     -0.4436
     32 C         -4.682362   2.621629   -5.244741 C.3        1 UNL1     0.3143
     33 C         -4.085416   1.307133   -5.705142 C.2        1 UNL1     0.2504
     34 C         -7.477111   3.311194   -8.314147 C.3        1 UNL1     -0.0327
     35 O         -3.587263   3.50629   -4.977558 O.2        1 UNL1     -0.4528
     36 C         -3.004094   3.338317   -1.230587 C.3        1 UNL1     0.0854
     37 C         -2.6876   2.085168   -0.326723 C.3        1 UNL1     0.0236
     38 C         -1.355966   2.209155   0.558219 C.3        1 UNL1     0.1131
     39 C         0.00527   2.633514   -0.126781 C.3        1 UNL1     0.0200
     40 C         0.453866   1.976966   -1.593119 C.3        1 UNL1     0.0661
     41 C         0.468258   0.325273   -1.979528 C.3        1 UNL1     0.0091
     42 C         0.16066   -0.526336   -3.575005 C.3        1 UNL1     0.0661
     43 C         -6.6085   -1.632136   -8.958782 C.2        1 UNL1     0.2131
     44 O         -7.662071   -1.828799   -9.536752 O.2        1 UNL1     -0.2851
     45 O         -7.789762   0.7708   -9.792689 O.3        1 UNL1     -0.5056
     46 O         -3.09795   0.741942   -5.29123 O.2        1 UNL1     -0.2836
     47 C         1.324137   0.104069   -5.891624 C.3        1 UNL1     -0.0566
     48 O         1.354086   -1.400205   -3.469159 O.3        1 UNL1     -0.3909
     49 C         -0.302573   -0.430465   -0.920201 C.3        1 UNL1     -0.0577
     50 O         -0.095488   2.718812   -2.663445 O.3        1 UNL1     -0.3910
     51 O         -2.001618   4.328056   -1.28437 O.3        1 UNL1     -0.3753
     52 C         -3.102429   0.747119   -1.021339 C.3        1 UNL1     -0.0564
     53 O         -1.263102   1.184076   1.650425 O.3        1 UNL1     -0.4608
     54 C         -0.113607   0.560505   2.059998 C.2        1 UNL1     0.3042
     55 O         0.38162   0.571823   3.186257 O.2        1 UNL1     -0.2512
     56 C         0.542166   -0.258462   0.984838 C.3        1 UNL1     0.0332
     57 C         0.169328   4.213026   0.064016 C.3        1 UNL1     -0.0567
     58 C         -5.757454   2.332545   -4.171364 C.3        1 UNL1     0.0210
     59 C         -2.473598   5.644488   -1.567403 C.3        1 UNL1     0.0372
     60 C         -3.370973   3.022045   -2.637901 C.2        1 UNL1     -0.0208
     61 C         -2.972439   3.580616   -3.781542 C.2        1 UNL1     0.0882
     62 H         -0.757313   0.178509   -5.395292 H        1 UNL1     0.0365
     63 H         -1.631251   -0.572289   -7.081341 H        1 UNL1     0.0576
     64 H         -0.296067   -3.21174   -7.945838 H        1 UNL1     0.0615
     65 H         -2.762739   -1.624567   -9.020208 H        1 UNL1     0.0622
     66 H         -3.900759   3.78525   -0.778604 H        1 UNL1     0.0645
     67 H         -3.470903   2.110645   0.450674 H        1 UNL1     0.0362
     68 H         -1.638435   3.059504   1.197469 H        1 UNL1     0.0741
     69 H         0.824097   2.349382   0.520675 H        1 UNL1     0.0359
     70 H         1.529251   2.238844   -1.598299 H        1 UNL1     0.0600
     71 H         1.512474   0.072738   -1.709719 H        1 UNL1     0.0348
     72 H         0.397327   0.517135   -3.828918 H        1 UNL1     0.0602
     73 H         -4.154872   2.305992   -2.641981 H        1 UNL1     0.0628
     74 H         -2.138417   4.277678   -3.869575 H        1 UNL1     0.1022
     75 H         -1.944238   -4.875434   -11.411048 H        1 UNL1     0.0279
     76 H         -2.324731   -5.686961   -9.944778 H        1 UNL1     0.0279
     77 H         -3.604517   -5.197617   -11.127143 H        1 UNL1     0.0279
     78 H         -5.040294   -4.507765   -9.200953 H        1 UNL1     0.1553
     79 H         -3.95444   -4.577637   -7.544975 H        1 UNL1     0.1484
     80 H         -4.297877   -3.638923   -3.878865 H        1 UNL1     0.0317
     81 H         -5.598874   -3.423158   -5.041095 H        1 UNL1     0.0317
     82 H         -5.049465   -5.60592   -6.148978 H        1 UNL1     0.0428
     83 H         -5.395304   -5.781591   -4.442743 H        1 UNL1     0.0428
     84 H         -1.289843   -5.745272   -5.559437 H        1 UNL1     0.0428
     85 H         -2.437272   -5.618106   -6.846432 H        1 UNL1     0.0428
     86 H         -1.38032   -3.499183   -6.060384 H        1 UNL1     0.0317
     87 H         -1.989696   -3.665636   -4.4782 H        1 UNL1     0.0317
     88 H         -2.472938   -7.68637   -4.263205 H        1 UNL1     0.0429
     89 H         -4.236732   -7.738122   -4.314094 H        1 UNL1     0.0429
     90 H         -2.192952   -8.157371   -6.498694 H        1 UNL1     0.0308
     91 H         -4.953168   -9.313878   -5.8351 H        1 UNL1     0.0233
     92 H         -4.078596   -9.698391   -7.339351 H        1 UNL1     0.0233
     93 H         -3.40781   -10.153938   -5.78786 H        1 UNL1     0.0233
     94 H         -4.061486   -7.587451   -8.201595 H        1 UNL1     0.0233
     95 H         -4.689455   -6.549191   -6.912409 H        1 UNL1     0.0233
     96 H         -3.051073   -6.280431   -7.550738 H        1 UNL1     0.0233
     97 H         -8.43182   3.242582   -7.801258 H        1 UNL1     0.0280
     98 H         -6.980623   4.201752   -7.90713 H        1 UNL1     0.0280
     99 H         -7.672025   3.472619   -9.387015 H        1 UNL1     0.0280
     100 H         -8.622484   0.398818   -9.560685 H        1 UNL1     0.2922
     101 H         1.994156   0.208867   -5.038543 H        1 UNL1     0.0236
     102 H         1.150315   1.054863   -6.394377 H        1 UNL1     0.0236
     103 H         1.890867   -0.499527   -6.620104 H        1 UNL1     0.0236
     104 H         2.07565   -0.868199   -3.080204 H        1 UNL1     0.2098
     105 H         -1.382642   -0.331759   -0.994498 H        1 UNL1     0.0234
     106 H         -0.025326   -1.479436   -0.816659 H        1 UNL1     0.0234
     107 H         0.0   0.0   0.0 H        1 UNL1     0.0234
     108 H         -0.000853   2.177137   -3.470539 H        1 UNL1     0.2098
     109 H         -4.15514   0.751128   -1.336768 H        1 UNL1     0.0234
     110 H         -2.465339   0.489415   -1.874245 H        1 UNL1     0.0234
     111 H         -2.998672   -0.110178   -0.342943 H        1 UNL1     0.0234
     112 H         1.630398   -0.192719   1.078521 H        1 UNL1     0.0342
     113 H         0.21062   -1.295611   1.000412 H        1 UNL1     0.0342
     114 H         0.261719   0.166063   0.011035 H        1 UNL1     0.0342
     115 H         1.223341   4.504154   0.171201 H        1 UNL1     0.0234
     116 H         -0.253629   4.804846   -0.750173 H        1 UNL1     0.0234
     117 H         -0.252753   4.587771   1.01236 H        1 UNL1     0.0234
     118 H         -5.746912   3.082801   -3.361418 H        1 UNL1     0.0309
     119 H         -6.76913   2.265021   -4.583861 H        1 UNL1     0.0309
     120 H         -5.581513   1.388762   -3.643705 H        1 UNL1     0.0309
     121 H         -1.654788   6.196311   -2.02827 H        1 UNL1     0.0524
     122 H         -3.315337   5.642989   -2.2798 H        1 UNL1     0.0524
     123 H         -2.78803   6.136119   -0.651147 H        1 UNL1     0.0524
@<TRIPOS>BOND
     1     1     2    1
     2     1    42    1
     3     2     3    2
     4     3     4    1
     5     4     5    2
     6     5     7    1
     7     6    75    1
     8     6    76    1
     9     6    77    1
    10     7     9   am
    11     9    10    1
    12    10    11    2
    13    10    43    1
    14    11    14    1
    15    11    15    1
    16    12    13   ar
    17    12    27   ar
    18    12    43    1
    19    13    14    1
    20    13    30   ar
    21    14    17    2
    22    15    16    1
    23    16    17    1
    24    16    18    1
    25    16    22    1
    26    18    19    1
    27    19    20    1
    28    20    21    1
    29    21    22    1
    30    23    24    1
    31    23    88    1
    32    23    89    1
    33    24    25    1
    34    24    26    1
    35    24    90    1
    36    25    91    1
    37    25    92    1
    38    25    93    1
    39    26    94    1
    40    26    95    1
    41    26    96    1
    42    27    28   ar
    43    28    29   ar
    44    29    30   ar
    45    29    31    1
    46    30    33    1
    47    31    32    1
    48    32    33    1
    49    32    35    1
    50    34    97    1
    51    34    98    1
    52    34    99    1
    53    35    61    1
    54    36    37    1
    55    36    60    1
    56    37    38    1
    57    38    39    1
    58    39    40    1
    59    40    41    1
    60    41    42    1
    61    45   100    1
    62    47   101    1
    63    47   102    1
    64    47   103    1
    65    48   104    1
    66    49   105    1
    67    49   106    1
    68    49   107    1
    69    50   108    1
    70    51    59    1
    71    52   109    1
    72    52   110    1
    73    52   111    1
    74    53    54    1
    75    54    55    2
    76    54    56    1
    77    56   112    1
    78    56   113    1
    79    56   114    1
    80    57   115    1
    81    57   116    1
    82    57   117    1
    83    58   118    1
    84    58   119    1
    85    58   120    1
    86    59   121    1
    87    59   122    1
    88    59   123    1
    89    60    61    2
    90     1    47    1
    91     1    62    1
    92     2    63    1
    93     3    64    1
    94     4    65    1
    95     5     6    1
    96     7     8    2
    97     9    78    1
    98    15    79    1
    99    18    80    1
   100    18    81    1
   101    19    82    1
   102    19    83    1
   103    20    23    1
   104    21    84    1
   105    21    85    1
   106    22    86    1
   107    22    87    1
   108    27    45    1
   109    28    34    1
   110    32    58    1
   111    33    46    2
   112    36    51    1
   113    36    66    1
   114    37    52    1
   115    37    67    1
   116    38    53    1
   117    38    68    1
   118    42    48    1
   119    42    72    1
   120    43    44    2
   121    60    73    1
   122    61    74    1
   123    39    69    1
   124    39    57    1
   125    40    70    1
   126    40    50    1
   127    41    71    1
   128    41    49    1
