@<TRIPOS>MOLECULE
*****
 123 128 0 0 0
SMALL
GASTEIGER

@<TRIPOS>ATOM
     1 C         5.151361   1.808032   0.440192 C.3        1 UNL1     0.0009
     2 C         6.581471   2.600694   -0.433598 C.2        1 UNL1     -0.0787
     3 C         7.864575   2.493717   -1.0956 C.2        1 UNL1     -0.0649
     4 C         8.731654   3.71314   -1.887775 C.2        1 UNL1     -0.0542
     5 C         9.749666   3.986279   -2.834413 C.2        1 UNL1     0.0115
     6 C         10.883833   3.344931   -3.68038 C.3        1 UNL1     -0.0348
     7 C         9.832401   5.451352   -3.48534 C.2        1 UNL1     0.2441
     8 O         10.648828   6.291203   -3.13232 O.2        1 UNL1     -0.2702
     9 N         9.081128   5.616342   -4.661995 N.am        1 UNL1     -0.2772
     10 C         7.794883   6.001051   -4.360506 C.2        1 UNL1     0.1049
     11 C         6.957447   5.031506   -4.039714 C.2        1 UNL1     0.0801
     12 C         6.481603   7.638068   -2.99933 C.ar        1 UNL1     0.0753
     13 C         5.732164   6.51755   -2.518302 C.ar        1 UNL1     0.0305
     14 C         5.860918   5.194057   -3.123975 C.2        1 UNL1     0.0924
     15 N         7.09179   3.699461   -4.158608 N.pl3        1 UNL1     -0.3170
     16 C         5.827026   3.098931   -3.826962 C.3        1 UNL1     0.1275
     17 N         5.181681   4.077665   -2.876523 N.2        1 UNL1     -0.2557
     18 C         4.974482   3.112393   -5.092145 C.3        1 UNL1     0.0016
     19 C         5.736024   2.401223   -6.19934 C.3        1 UNL1     0.0026
     20 N         6.017972   1.037803   -5.771999 N.3        1 UNL1     -0.3018
     21 C         6.78193   0.921549   -4.528125 C.3        1 UNL1     0.0026
     22 C         5.996474   1.638706   -3.428744 C.3        1 UNL1     0.0016
     23 C         6.470325   0.189104   -6.85631 C.3        1 UNL1     0.0012
     24 C         5.317719   -0.099989   -7.830827 C.3        1 UNL1     -0.0339
     25 C         5.405533   0.786012   -9.084361 C.3        1 UNL1     -0.0615
     26 C         5.296848   -1.575656   -8.189643 C.3        1 UNL1     -0.0615
     27 C         6.265522   8.919615   -2.498265 C.ar        1 UNL1     0.1347
     28 C         5.303544   9.209573   -1.547175 C.ar        1 UNL1     0.0342
     29 C         4.611648   8.083419   -1.052989 C.ar        1 UNL1     0.1435
     30 C         4.842615   6.788705   -1.519456 C.ar        1 UNL1     0.0774
     31 O         3.569173   8.213544   -0.203685 O.3        1 UNL1     -0.4436
     32 C         2.858397   6.97072   -0.308855 C.3        1 UNL1     0.3143
     33 C         3.880675   5.970937   -0.810448 C.2        1 UNL1     0.2504
     34 C         4.844496   10.584377   -1.148063 C.3        1 UNL1     -0.0327
     35 O         2.50078   6.57077   1.019829 O.2        1 UNL1     -0.4528
     36 C         -0.72499   4.59915   0.680408 C.3        1 UNL1     0.0854
     37 C         -1.018701   3.309448   -0.178618 C.3        1 UNL1     0.0236
     38 C         -1.608686   2.067527   0.646787 C.3        1 UNL1     0.1131
     39 C         -0.879114   1.582467   1.963871 C.3        1 UNL1     0.0200
     40 C         0.783263   1.452793   2.009996 C.3        1 UNL1     0.0661
     41 C         1.750042   0.657497   0.865246 C.3        1 UNL1     0.0091
     42 C         3.454739   1.017828   0.291162 C.3        1 UNL1     0.0661
     43 C         7.434116   7.404984   -4.113174 C.2        1 UNL1     0.2131
     44 O         7.826569   8.28445   -4.85833 O.2        1 UNL1     -0.2851
     45 O         7.068984   9.9475   -2.987488 O.3        1 UNL1     -0.5056
     46 O         3.907112   4.772081   -0.643415 O.2        1 UNL1     -0.2836
     47 C         5.550582   1.425623   1.890836 C.3        1 UNL1     -0.0566
     48 O         3.91558   -0.386183   0.41564 O.3        1 UNL1     -0.3909
     49 C         0.918683   0.380307   -0.367435 C.3        1 UNL1     -0.0577
     50 O         1.372543   2.687164   2.366089 O.3        1 UNL1     -0.3910
     51 O         -0.848269   4.450456   2.076876 O.3        1 UNL1     -0.3753
     52 C         0.027825   3.123439   -1.325411 C.3        1 UNL1     -0.0564
     53 O         -2.201626   0.99663   -0.221504 O.3        1 UNL1     -0.4608
     54 C         -2.393521   -0.309492   0.146127 C.2        1 UNL1     0.3042
     55 O         -1.739146   -1.289129   -0.208757 O.2        1 UNL1     -0.2512
     56 C         -3.506366   -0.497939   1.137478 C.3        1 UNL1     0.0332
     57 C         -1.606738   2.282863   3.204106 C.3        1 UNL1     -0.0567
     58 C         1.781763   7.173561   -1.400296 C.3        1 UNL1     0.0210
     59 C         -1.172219   5.648463   2.780936 C.3        1 UNL1     0.0372
     60 C         0.598593   5.232609   0.431377 C.2        1 UNL1     -0.0208
     61 C         1.507155   5.701856   1.28757 C.2        1 UNL1     0.0882
     62 H         4.666798   2.790182   0.497558 H        1 UNL1     0.0365
     63 H         6.305953   3.654818   -0.360233 H        1 UNL1     0.0576
     64 H         8.330803   1.524685   -1.287213 H        1 UNL1     0.0615
     65 H         8.236372   4.634282   -1.568906 H        1 UNL1     0.0622
     66 H         -1.475952   5.329425   0.347542 H        1 UNL1     0.0645
     67 H         -1.886549   3.592634   -0.799267 H        1 UNL1     0.0362
     68 H         -2.559755   2.506504   0.984854 H        1 UNL1     0.0741
     69 H         -1.2019   0.57486   2.189582 H        1 UNL1     0.0359
     70 H         0.900273   0.820357   2.91077 H        1 UNL1     0.0600
     71 H         1.802294   -0.3499   1.322825 H        1 UNL1     0.0348
     72 H         3.343996   1.534425   1.25562 H        1 UNL1     0.0602
     73 H         0.715389   5.399516   -0.610616 H        1 UNL1     0.0628
     74 H         1.490803   5.523424   2.363271 H        1 UNL1     0.1022
     75 H         10.886789   2.235284   -3.555043 H        1 UNL1     0.0279
     76 H         10.807746   3.458596   -4.759435 H        1 UNL1     0.0279
     77 H         11.887412   3.607096   -3.314593 H        1 UNL1     0.0279
     78 H         9.027055   4.730443   -5.16033 H        1 UNL1     0.1553
     79 H         7.761152   3.258879   -4.762573 H        1 UNL1     0.1484
     80 H         4.017413   2.61914   -4.883611 H        1 UNL1     0.0317
     81 H         4.73898   4.138472   -5.394392 H        1 UNL1     0.0317
     82 H         6.662155   2.932931   -6.462931 H        1 UNL1     0.0428
     83 H         5.110953   2.423953   -7.092548 H        1 UNL1     0.0428
     84 H         6.911179   -0.110504   -4.187578 H        1 UNL1     0.0428
     85 H         7.808828   1.29529   -4.642652 H        1 UNL1     0.0428
     86 H         6.514517   1.420393   -2.513343 H        1 UNL1     0.0317
     87 H         5.021168   1.156501   -3.289629 H        1 UNL1     0.0317
     88 H         7.261939   0.721693   -7.399441 H        1 UNL1     0.0429
     89 H         6.910961   -0.741822   -6.47685 H        1 UNL1     0.0429
     90 H         4.363863   0.099585   -7.328292 H        1 UNL1     0.0308
     91 H         6.362235   0.653931   -9.598538 H        1 UNL1     0.0233
     92 H         4.591785   0.557585   -9.776635 H        1 UNL1     0.0233
     93 H         5.315828   1.853328   -8.84851 H        1 UNL1     0.0233
     94 H         4.643692   -1.745366   -9.052441 H        1 UNL1     0.0233
     95 H         6.3032   -1.909227   -8.457874 H        1 UNL1     0.0233
     96 H         4.93375   -2.183833   -7.356426 H        1 UNL1     0.0233
     97 H         3.996669   10.550109   -0.470387 H        1 UNL1     0.0280
     98 H         5.627558   11.145532   -0.621587 H        1 UNL1     0.0280
     99 H         4.546164   11.149132   -2.046475 H        1 UNL1     0.0280
     100 H         6.598608   10.714103   -3.264417 H        1 UNL1     0.2922
     101 H         4.667309   1.105101   2.442879 H        1 UNL1     0.0236
     102 H         6.092087   2.21637   2.408982 H        1 UNL1     0.0236
     103 H         6.228508   0.556224   1.91827 H        1 UNL1     0.0236
     104 H         4.247775   -0.507919   1.326573 H        1 UNL1     0.2098
     105 H         0.698528   1.259526   -0.967698 H        1 UNL1     0.0234
     106 H         1.295346   -0.423894   -0.999347 H        1 UNL1     0.0234
     107 H         0.0   -0.0   0.0 H        1 UNL1     0.0234
     108 H         1.222817   3.304749   1.62451 H        1 UNL1     0.2098
     109 H         1.054724   3.04286   -0.942402 H        1 UNL1     0.0234
     110 H         -0.190237   2.266867   -1.972309 H        1 UNL1     0.0234
     111 H         0.03295   3.980777   -2.011628 H        1 UNL1     0.0234
     112 H         -3.592511   -1.555809   1.403629 H        1 UNL1     0.0342
     113 H         -3.37291   0.118646   2.025091 H        1 UNL1     0.0342
     114 H         -4.447342   -0.193344   0.658991 H        1 UNL1     0.0342
     115 H         -2.692894   2.118099   3.186606 H        1 UNL1     0.0234
     116 H         -1.240192   1.952709   4.178114 H        1 UNL1     0.0234
     117 H         -1.55795   3.385069   3.177603 H        1 UNL1     0.0234
     118 H         0.874388   7.660558   -1.002164 H        1 UNL1     0.0309
     119 H         2.145162   7.742892   -2.261693 H        1 UNL1     0.0309
     120 H         1.404935   6.225877   -1.800299 H        1 UNL1     0.0309
     121 H         -0.84417   5.523587   3.812511 H        1 UNL1     0.0524
     122 H         -0.650108   6.528944   2.370827 H        1 UNL1     0.0524
     123 H         -2.243351   5.826311   2.747157 H        1 UNL1     0.0524
@<TRIPOS>BOND
     1     1     2    1
     2     1    42    1
     3     2     3    2
     4     3     4    1
     5     4     5    2
     6     5     7    1
     7     6    75    1
     8     6    76    1
     9     6    77    1
    10     7     9   am
    11     9    10    1
    12    10    11    2
    13    10    43    1
    14    11    14    1
    15    11    15    1
    16    12    13   ar
    17    12    27   ar
    18    12    43    1
    19    13    14    1
    20    13    30   ar
    21    14    17    2
    22    15    16    1
    23    16    17    1
    24    16    18    1
    25    16    22    1
    26    18    19    1
    27    19    20    1
    28    20    21    1
    29    21    22    1
    30    23    24    1
    31    23    88    1
    32    23    89    1
    33    24    25    1
    34    24    26    1
    35    24    90    1
    36    25    91    1
    37    25    92    1
    38    25    93    1
    39    26    94    1
    40    26    95    1
    41    26    96    1
    42    27    28   ar
    43    28    29   ar
    44    29    30   ar
    45    29    31    1
    46    30    33    1
    47    31    32    1
    48    32    33    1
    49    32    35    1
    50    34    97    1
    51    34    98    1
    52    34    99    1
    53    35    61    1
    54    36    37    1
    55    36    60    1
    56    37    38    1
    57    38    39    1
    58    39    40    1
    59    40    41    1
    60    41    42    1
    61    45   100    1
    62    47   101    1
    63    47   102    1
    64    47   103    1
    65    48   104    1
    66    49   105    1
    67    49   106    1
    68    49   107    1
    69    50   108    1
    70    51    59    1
    71    52   109    1
    72    52   110    1
    73    52   111    1
    74    53    54    1
    75    54    55    2
    76    54    56    1
    77    56   112    1
    78    56   113    1
    79    56   114    1
    80    57   115    1
    81    57   116    1
    82    57   117    1
    83    58   118    1
    84    58   119    1
    85    58   120    1
    86    59   121    1
    87    59   122    1
    88    59   123    1
    89    60    61    2
    90     1    47    1
    91     1    62    1
    92     2    63    1
    93     3    64    1
    94     4    65    1
    95     5     6    1
    96     7     8    2
    97     9    78    1
    98    15    79    1
    99    18    80    1
   100    18    81    1
   101    19    82    1
   102    19    83    1
   103    20    23    1
   104    21    84    1
   105    21    85    1
   106    22    86    1
   107    22    87    1
   108    27    45    1
   109    28    34    1
   110    32    58    1
   111    33    46    2
   112    36    51    1
   113    36    66    1
   114    37    52    1
   115    37    67    1
   116    38    53    1
   117    38    68    1
   118    42    48    1
   119    42    72    1
   120    43    44    2
   121    60    73    1
   122    61    74    1
   123    39    69    1
   124    39    57    1
   125    40    70    1
   126    40    50    1
   127    41    71    1
   128    41    49    1
