@<TRIPOS>MOLECULE
*****
 123 128 0 0 0
SMALL
GASTEIGER

@<TRIPOS>ATOM
     1 C         1.438838   1.132927   3.700207 C.3        1 UNL1     0.0009
     2 C         0.757259   2.423587   4.84331 C.2        1 UNL1     -0.0787
     3 C         0.748814   3.783484   5.339953 C.2        1 UNL1     -0.0649
     4 C         -0.317429   4.4765   6.457635 C.2        1 UNL1     -0.0542
     5 C         -0.85006   5.691456   6.95489 C.2        1 UNL1     0.0115
     6 C         -0.698207   7.237135   6.921091 C.3        1 UNL1     -0.0348
     7 C         -2.212431   5.652913   7.803094 C.2        1 UNL1     0.2441
     8 O         -2.239425   5.739617   9.023045 O.2        1 UNL1     -0.2702
     9 N         -3.385799   5.775752   7.03872 N.am        1 UNL1     -0.2772
     10 C         -3.810241   4.539604   6.608478 C.2        1 UNL1     0.1049
     11 C         -3.228147   4.070844   5.519602 C.2        1 UNL1     0.0801
     12 C         -4.278705   2.215175   7.405288 C.ar        1 UNL1     0.0753
     13 C         -3.460148   1.762816   6.3218 C.ar        1 UNL1     0.0305
     14 C         -3.016618   2.671297   5.266815 C.2        1 UNL1     0.0924
     15 N         -2.430919   4.689461   4.631757 N.pl3        1 UNL1     -0.3170
     16 C         -2.205614   3.783016   3.537293 C.3        1 UNL1     0.1275
     17 N         -2.345334   2.410288   4.148701 N.2        1 UNL1     -0.2557
     18 C         -3.37761   3.938364   2.572931 C.3        1 UNL1     0.0016
     19 C         -3.482517   5.399641   2.166417 C.3        1 UNL1     0.0026
     20 N         -2.231098   5.801703   1.539262 N.3        1 UNL1     -0.3018
     21 C         -1.036713   5.630526   2.369028 C.3        1 UNL1     0.0026
     22 C         -0.948516   4.15484   2.762052 C.3        1 UNL1     0.0016
     23 C         -2.328212   7.07373   0.851395 C.3        1 UNL1     0.0012
     24 C         -2.10756   8.235223   1.833232 C.3        1 UNL1     -0.0339
     25 C         -1.004527   7.907657   2.853073 C.3        1 UNL1     -0.0615
     26 C         -1.801448   9.511802   1.069412 C.3        1 UNL1     -0.0615
     27 C         -4.797159   1.322004   8.339938 C.ar        1 UNL1     0.1347
     28 C         -4.599388   -0.045621   8.272565 C.ar        1 UNL1     0.0342
     29 C         -3.750175   -0.46283   7.225695 C.ar        1 UNL1     0.1435
     30 C         -3.194194   0.42437   6.303208 C.ar        1 UNL1     0.0774
     31 O         -3.54883   -1.772162   6.960898 O.3        1 UNL1     -0.4436
     32 C         -3.058552   -1.798124   5.611889 C.3        1 UNL1     0.3143
     33 C         -2.469828   -0.421601   5.377794 C.2        1 UNL1     0.2504
     34 C         -5.324143   -1.082374   9.084953 C.3        1 UNL1     -0.0327
     35 O         -1.970395   -2.729561   5.571984 O.2        1 UNL1     -0.4528
     36 C         -1.96205   -4.170281   2.06024 C.3        1 UNL1     0.0854
     37 C         -1.850406   -3.421732   0.676502 C.3        1 UNL1     0.0236
     38 C         -0.660922   -3.928689   -0.272111 C.3        1 UNL1     0.1131
     39 C         0.807697   -4.044625   0.304073 C.3        1 UNL1     0.0200
     40 C         1.434621   -2.836765   1.268688 C.3        1 UNL1     0.0661
     41 C         1.419301   -1.176998   0.918618 C.3        1 UNL1     0.0091
     42 C         1.308509   0.273856   2.035824 C.3        1 UNL1     0.0661
     43 C         -4.631156   3.656029   7.449757 C.2        1 UNL1     0.2131
     44 O         -5.595676   4.09479   8.049696 O.2        1 UNL1     -0.2851
     45 O         -5.546454   1.849381   9.389637 O.3        1 UNL1     -0.5056
     46 O         -1.586315   -0.099655   4.61516 O.2        1 UNL1     -0.2836
     47 C         2.83598   0.66399   4.188134 C.3        1 UNL1     -0.0566
     48 O         2.425033   1.002556   1.386604 O.3        1 UNL1     -0.3909
     49 C         0.460367   -0.928128   -0.224187 C.3        1 UNL1     -0.0577
     50 O         1.09089   -3.048052   2.623284 O.3        1 UNL1     -0.3910
     51 O         -0.911955   -5.059824   2.36593 O.3        1 UNL1     -0.3753
     52 C         -2.227049   -1.909265   0.801136 C.3        1 UNL1     -0.0564
     53 O         -0.786141   -3.462971   -1.693291 O.3        1 UNL1     -0.4608
     54 C         0.250429   -3.050508   -2.489109 C.2        1 UNL1     0.3042
     55 O         1.076286   -3.757126   -3.065727 O.2        1 UNL1     -0.2512
     56 C         0.300688   -1.562334   -2.687926 C.3        1 UNL1     0.0332
     57 C         1.024576   -5.559046   0.770621 C.3        1 UNL1     -0.0567
     58 C         -4.295392   -1.973352   4.700269 C.3        1 UNL1     0.0210
     59 C         -0.388286   -4.937396   3.687538 C.3        1 UNL1     0.0372
     60 C         -2.131186   -3.283138   3.243258 C.2        1 UNL1     -0.0208
     61 C         -1.537697   -3.311971   4.437278 C.2        1 UNL1     0.0882
     62 H         0.710655   0.418804   4.103307 H        1 UNL1     0.0365
     63 H         0.059472   1.825325   5.432926 H        1 UNL1     0.0576
     64 H         1.367487   4.561871   4.887775 H        1 UNL1     0.0615
     65 H         -0.824234   3.615868   6.902544 H        1 UNL1     0.0622
     66 H         -2.891237   -4.752505   1.984916 H        1 UNL1     0.0645
     67 H         -2.738408   -3.76137   0.115557 H        1 UNL1     0.0362
     68 H         -0.990278   -4.965087   -0.442191 H        1 UNL1     0.0741
     69 H         1.504702   -4.07348   -0.522824 H        1 UNL1     0.0359
     70 H         2.511061   -3.088444   1.213971 H        1 UNL1     0.0600
     71 H         2.396828   -1.078317   0.407091 H        1 UNL1     0.0348
     72 H         1.635104   -0.567974   2.663497 H        1 UNL1     0.0602
     73 H         -2.94239   -2.620497   3.069756 H        1 UNL1     0.0628
     74 H         -0.66427   -3.919237   4.67726 H        1 UNL1     0.1022
     75 H         -0.447624   7.628715   7.936427 H        1 UNL1     0.0279
     76 H         0.111451   7.631844   6.311396 H        1 UNL1     0.0279
     77 H         -1.647884   7.753406   6.71792 H        1 UNL1     0.0279
     78 H         -3.198291   6.339917   6.212502 H        1 UNL1     0.1553
     79 H         -2.376673   5.686473   4.531973 H        1 UNL1     0.1484
     80 H         -3.212831   3.291416   1.702832 H        1 UNL1     0.0317
     81 H         -4.3128   3.60726   3.037088 H        1 UNL1     0.0317
     82 H         -3.720292   6.044982   3.024853 H        1 UNL1     0.0428
     83 H         -4.325424   5.488224   1.480334 H        1 UNL1     0.0428
     84 H         -0.103227   5.864098   1.847628 H        1 UNL1     0.0428
     85 H         -1.037634   6.310597   3.232057 H        1 UNL1     0.0428
     86 H         0.000618   4.042013   3.25236 H        1 UNL1     0.0317
     87 H         -0.845754   3.533403   1.86408 H        1 UNL1     0.0317
     88 H         -1.541976   7.108984   0.085965 H        1 UNL1     0.0429
     89 H         -3.289112   7.172893   0.330231 H        1 UNL1     0.0429
     90 H         -3.039933   8.427855   2.377096 H        1 UNL1     0.0308
     91 H         -0.899606   8.704711   3.595231 H        1 UNL1     0.0233
     92 H         -1.218988   6.966731   3.365199 H        1 UNL1     0.0233
     93 H         -0.022858   7.781759   2.380514 H        1 UNL1     0.0233
     94 H         -1.610853   10.333548   1.768155 H        1 UNL1     0.0233
     95 H         -0.905615   9.375221   0.45721 H        1 UNL1     0.0233
     96 H         -2.633235   9.796976   0.4192 H        1 UNL1     0.0233
     97 H         -5.791599   -0.655173   9.967118 H        1 UNL1     0.0280
     98 H         -6.133306   -1.561033   8.518035 H        1 UNL1     0.0280
     99 H         -4.612855   -1.858293   9.412235 H        1 UNL1     0.0280
     100 H         -5.282044   1.557954   10.244494 H        1 UNL1     0.2922
     101 H         3.464073   1.530817   4.392507 H        1 UNL1     0.0236
     102 H         3.315507   -0.036695   3.505435 H        1 UNL1     0.0236
     103 H         2.779954   0.126135   5.149262 H        1 UNL1     0.0236
     104 H         3.221222   0.874657   1.938597 H        1 UNL1     0.2098
     105 H         0.935719   -0.837202   -1.197627 H        1 UNL1     0.0234
     106 H         -0.376678   -1.624254   -0.276073 H        1 UNL1     0.0234
     107 H         -0.0   0.0   0.0 H        1 UNL1     0.0234
     108 H         1.724211   -3.697308   2.985414 H        1 UNL1     0.2098
     109 H         -2.332498   -1.424664   -0.179555 H        1 UNL1     0.0234
     110 H         -3.132477   -1.738593   1.393431 H        1 UNL1     0.0234
     111 H         -1.45106   -1.341307   1.331429 H        1 UNL1     0.0234
     112 H         0.141098   -1.053611   -1.732375 H        1 UNL1     0.0342
     113 H         1.233312   -1.242158   -3.150034 H        1 UNL1     0.0342
     114 H         -0.519355   -1.278322   -3.361743 H        1 UNL1     0.0342
     115 H         0.432789   -6.261035   0.167141 H        1 UNL1     0.0234
     116 H         2.064298   -5.890249   0.734136 H        1 UNL1     0.0234
     117 H         0.636005   -5.76764   1.782274 H        1 UNL1     0.0234
     118 H         -5.080433   -1.228416   4.91887 H        1 UNL1     0.0309
     119 H         -4.051968   -1.934674   3.633756 H        1 UNL1     0.0309
     120 H         -4.803677   -2.930427   4.860771 H        1 UNL1     0.0309
     121 H         0.549416   -4.386371   3.620884 H        1 UNL1     0.0524
     122 H         -1.060171   -4.37001   4.352881 H        1 UNL1     0.0524
     123 H         -0.215633   -5.920615   4.115982 H        1 UNL1     0.0524
@<TRIPOS>BOND
     1     1     2    1
     2     1    42    1
     3     2     3    2
     4     3     4    1
     5     4     5    2
     6     5     7    1
     7     6    75    1
     8     6    76    1
     9     6    77    1
    10     7     9   am
    11     9    10    1
    12    10    11    2
    13    10    43    1
    14    11    14    1
    15    11    15    1
    16    12    13   ar
    17    12    27   ar
    18    12    43    1
    19    13    14    1
    20    13    30   ar
    21    14    17    2
    22    15    16    1
    23    16    17    1
    24    16    18    1
    25    16    22    1
    26    18    19    1
    27    19    20    1
    28    20    21    1
    29    21    22    1
    30    23    24    1
    31    23    88    1
    32    23    89    1
    33    24    25    1
    34    24    26    1
    35    24    90    1
    36    25    91    1
    37    25    92    1
    38    25    93    1
    39    26    94    1
    40    26    95    1
    41    26    96    1
    42    27    28   ar
    43    28    29   ar
    44    29    30   ar
    45    29    31    1
    46    30    33    1
    47    31    32    1
    48    32    33    1
    49    32    35    1
    50    34    97    1
    51    34    98    1
    52    34    99    1
    53    35    61    1
    54    36    37    1
    55    36    60    1
    56    37    38    1
    57    38    39    1
    58    39    40    1
    59    40    41    1
    60    41    42    1
    61    45   100    1
    62    47   101    1
    63    47   102    1
    64    47   103    1
    65    48   104    1
    66    49   105    1
    67    49   106    1
    68    49   107    1
    69    50   108    1
    70    51    59    1
    71    52   109    1
    72    52   110    1
    73    52   111    1
    74    53    54    1
    75    54    55    2
    76    54    56    1
    77    56   112    1
    78    56   113    1
    79    56   114    1
    80    57   115    1
    81    57   116    1
    82    57   117    1
    83    58   118    1
    84    58   119    1
    85    58   120    1
    86    59   121    1
    87    59   122    1
    88    59   123    1
    89    60    61    2
    90     1    47    1
    91     1    62    1
    92     2    63    1
    93     3    64    1
    94     4    65    1
    95     5     6    1
    96     7     8    2
    97     9    78    1
    98    15    79    1
    99    18    80    1
   100    18    81    1
   101    19    82    1
   102    19    83    1
   103    20    23    1
   104    21    84    1
   105    21    85    1
   106    22    86    1
   107    22    87    1
   108    27    45    1
   109    28    34    1
   110    32    58    1
   111    33    46    2
   112    36    51    1
   113    36    66    1
   114    37    52    1
   115    37    67    1
   116    38    53    1
   117    38    68    1
   118    42    48    1
   119    42    72    1
   120    43    44    2
   121    60    73    1
   122    61    74    1
   123    39    69    1
   124    39    57    1
   125    40    70    1
   126    40    50    1
   127    41    71    1
   128    41    49    1
