@<TRIPOS>MOLECULE
*****
 123 128 0 0 0
SMALL
GASTEIGER

@<TRIPOS>ATOM
     1 C         5.154866   1.776185   0.521339 C.3        1 UNL1     0.0009
     2 C         6.591307   2.592237   -0.31993 C.2        1 UNL1     -0.0787
     3 C         7.877031   2.502717   -0.979434 C.2        1 UNL1     -0.0649
     4 C         8.751394   3.744459   -1.727715 C.2        1 UNL1     -0.0542
     5 C         9.774474   4.04496   -2.660498 C.2        1 UNL1     0.0115
     6 C         10.910448   3.427814   -3.521903 C.3        1 UNL1     -0.0348
     7 C         9.864627   5.53015   -3.263052 C.2        1 UNL1     0.2441
     8 O         10.682039   6.355448   -2.879326 O.2        1 UNL1     -0.2702
     9 N         9.119147   5.735729   -4.436998 N.am        1 UNL1     -0.2772
     10 C         7.832752   6.114565   -4.128791 C.2        1 UNL1     0.1049
     11 C         6.990912   5.137801   -3.84338 C.2        1 UNL1     0.0801
     12 C         6.518417   7.710672   -2.720849 C.ar        1 UNL1     0.0753
     13 C         5.763391   6.57752   -2.279814 C.ar        1 UNL1     0.0305
     14 C         5.890792   5.274015   -2.927651 C.2        1 UNL1     0.0924
     15 N         7.121694   3.809901   -4.004953 N.pl3        1 UNL1     -0.3170
     16 C         5.853617   3.202975   -3.698562 C.3        1 UNL1     0.1275
     17 N         5.207027   4.152357   -2.719624 N.2        1 UNL1     -0.2557
     18 C         5.006799   3.260311   -4.966361 C.3        1 UNL1     0.0016
     19 C         5.771108   2.583073   -6.092758 C.3        1 UNL1     0.0026
     20 N         6.046949   1.20558   -5.708764 N.3        1 UNL1     -0.3018
     21 C         6.804961   1.046484   -4.465996 C.3        1 UNL1     0.0026
     22 C         6.016791   1.730036   -3.347318 C.3        1 UNL1     0.0016
     23 C         6.501548   0.391137   -6.818118 C.3        1 UNL1     0.0012
     24 C         5.352441   0.137593   -7.806563 C.3        1 UNL1     -0.0339
     25 C         5.388532   1.132693   -8.978113 C.3        1 UNL1     -0.0615
     26 C         5.391945   -1.300576   -8.293276 C.3        1 UNL1     -0.0615
     27 C         6.30403   8.975936   -2.179312 C.ar        1 UNL1     0.1347
     28 C         5.338693   9.237908   -1.223516 C.ar        1 UNL1     0.0342
     29 C         4.641133   8.09851   -0.769262 C.ar        1 UNL1     0.1435
     30 C         4.87021   6.818913   -1.276583 C.ar        1 UNL1     0.0774
     31 O         3.595265   8.204302   0.079251 O.3        1 UNL1     -0.4436
     32 C         2.881153   6.967848   -0.069406 C.3        1 UNL1     0.3143
     33 C         3.902594   5.981621   -0.598773 C.2        1 UNL1     0.2504
     34 C         4.882086   10.600476   -0.781907 C.3        1 UNL1     -0.0327
     35 O         2.516356   6.526057   1.243985 O.2        1 UNL1     -0.4528
     36 C         -0.713902   4.576901   0.826477 C.3        1 UNL1     0.0854
     37 C         -1.007718   3.316765   -0.075327 C.3        1 UNL1     0.0236
     38 C         -1.605211   2.050566   0.706649 C.3        1 UNL1     0.1131
     39 C         -0.883044   1.520591   2.01044 C.3        1 UNL1     0.0200
     40 C         0.778703   1.384141   2.059604 C.3        1 UNL1     0.0661
     41 C         1.748157   0.623383   0.893835 C.3        1 UNL1     0.0091
     42 C         3.456509   0.996706   0.33925 C.3        1 UNL1     0.0661
     43 C         7.475194   7.510866   -3.837503 C.2        1 UNL1     0.2131
     44 O         7.873683   8.41283   -4.551928 O.2        1 UNL1     -0.2851
     45 O         7.112831   10.016596   -2.631314 O.3        1 UNL1     -0.5056
     46 O         3.924599   4.777889   -0.470714 O.2        1 UNL1     -0.2836
     47 C         5.546402   1.345527   1.96051 C.3        1 UNL1     -0.0566
     48 O         3.912472   -0.412085   0.420008 O.3        1 UNL1     -0.3909
     49 C         0.921485   0.389097   -0.350841 C.3        1 UNL1     -0.0577
     50 O         1.37017   2.604378   2.458241 O.3        1 UNL1     -0.3910
     51 O         -0.843896   4.383275   2.216816 O.3        1 UNL1     -0.3753
     52 C         0.043362   3.16478   -1.222969 C.3        1 UNL1     -0.0564
     53 O         -2.197538   1.010381   -0.198609 O.3        1 UNL1     -0.4608
     54 C         -2.426399   -0.298441   0.136857 C.2        1 UNL1     0.3042
     55 O         -1.848577   -1.293273   -0.29934 O.2        1 UNL1     -0.2512
     56 C         -3.472323   -0.472468   1.201034 C.3        1 UNL1     0.0332
     57 C         -1.614067   2.182625   3.269603 C.3        1 UNL1     -0.0567
     58 C         1.810052   7.209532   -1.158377 C.3        1 UNL1     0.0210
     59 C         -1.167318   5.558791   2.958049 C.3        1 UNL1     0.0372
     60 C         0.612724   5.213863   0.603985 C.2        1 UNL1     -0.0208
     61 C         1.518876   5.652097   1.478962 C.2        1 UNL1     0.0882
     62 H         4.67307   2.757504   0.6085 H        1 UNL1     0.0365
     63 H         6.318702   3.644299   -0.21352 H        1 UNL1     0.0576
     64 H         8.341134   1.538934   -1.200424 H        1 UNL1     0.0615
     65 H         8.25752   4.656333   -1.381223 H        1 UNL1     0.0622
     66 H         -1.461117   5.320026   0.514257 H        1 UNL1     0.0645
     67 H         -1.871901   3.622772   -0.690232 H        1 UNL1     0.0362
     68 H         -2.556433   2.481374   1.054647 H        1 UNL1     0.0741
     69 H         -1.209933   0.507221   2.201837 H        1 UNL1     0.0359
     70 H         0.88973   0.722376   2.939832 H        1 UNL1     0.0600
     71 H         1.795262   -0.398523   1.318626 H        1 UNL1     0.0348
     72 H         3.343031   1.482023   1.319508 H        1 UNL1     0.0602
     73 H         0.734702   5.414187   -0.431505 H        1 UNL1     0.0628
     74 H         1.497153   5.438835   2.548207 H        1 UNL1     0.1022
     75 H         10.941802   2.319   -3.39313 H        1 UNL1     0.0279
     76 H         10.815053   3.535837   -4.600003 H        1 UNL1     0.0279
     77 H         11.913005   3.715078   -3.172533 H        1 UNL1     0.0279
     78 H         9.064588   4.866681   -4.964119 H        1 UNL1     0.1553
     79 H         7.7924   3.38704   -4.619993 H        1 UNL1     0.1484
     80 H         4.047294   2.763619   -4.778177 H        1 UNL1     0.0317
     81 H         4.775808   4.296427   -5.236098 H        1 UNL1     0.0317
     82 H         6.700041   3.12009   -6.334853 H        1 UNL1     0.0428
     83 H         5.150121   2.636846   -6.987484 H        1 UNL1     0.0428
     84 H         6.929511   0.003493   -4.158639 H        1 UNL1     0.0428
     85 H         7.833505   1.420446   -4.563804 H        1 UNL1     0.0428
     86 H         6.530052   1.480408   -2.437243 H        1 UNL1     0.0317
     87 H         5.039394   1.246702   -3.228238 H        1 UNL1     0.0317
     88 H         7.297222   0.938556   -7.340162 H        1 UNL1     0.0429
     89 H         6.937618   -0.553048   -6.467215 H        1 UNL1     0.0429
     90 H         4.396134   0.250162   -7.282141 H        1 UNL1     0.0308
     91 H         6.344627   1.088435   -9.508232 H        1 UNL1     0.0233
     92 H         4.578266   0.929853   -9.682338 H        1 UNL1     0.0233
     93 H         5.255015   2.170322   -8.64897 H        1 UNL1     0.0233
     94 H         4.702383   -1.433924   -9.133847 H        1 UNL1     0.0233
     95 H         6.398596   -1.550105   -8.640194 H        1 UNL1     0.0233
     96 H         5.108892   -1.998209   -7.500082 H        1 UNL1     0.0233
     97 H         4.079091   10.5447   -0.052991 H        1 UNL1     0.0280
     98 H         5.686872   11.170391   -0.299442 H        1 UNL1     0.0280
     99 H         4.518433   11.168394   -1.65387 H        1 UNL1     0.0280
     100 H         6.64327   10.765886   -2.953338 H        1 UNL1     0.2922
     101 H         4.680266   0.917335   2.46461 H        1 UNL1     0.0236
     102 H         6.000952   2.14869   2.53956 H        1 UNL1     0.0236
     103 H         6.297953   0.538457   1.961256 H        1 UNL1     0.0236
     104 H         4.322948   -0.5394   1.297658 H        1 UNL1     0.2098
     105 H         0.706726   1.288073   -0.923144 H        1 UNL1     0.0234
     106 H         1.298505   -0.395338   -1.006923 H        1 UNL1     0.0234
     107 H         0.0   -0.0   0.0 H        1 UNL1     0.0234
     108 H         1.186533   3.258576   1.756764 H        1 UNL1     0.2098
     109 H         1.068281   3.068487   -0.838288 H        1 UNL1     0.0234
     110 H         -0.174428   2.330401   -1.898338 H        1 UNL1     0.0234
     111 H         0.054197   4.043956   -1.880903 H        1 UNL1     0.0234
     112 H         -3.590967   -1.534549   1.436093 H        1 UNL1     0.0342
     113 H         -3.244597   0.102939   2.097076 H        1 UNL1     0.0342
     114 H         -4.429374   -0.106323   0.804604 H        1 UNL1     0.0342
     115 H         -2.682475   1.928349   3.301782 H        1 UNL1     0.0234
     116 H         -1.180867   1.903044   4.232007 H        1 UNL1     0.0234
     117 H         -1.658528   3.284361   3.223319 H        1 UNL1     0.0234
     118 H         0.90363   7.689072   -0.749174 H        1 UNL1     0.0309
     119 H         2.179937   7.802815   -2.000638 H        1 UNL1     0.0309
     120 H         1.429889   6.276476   -1.58848 H        1 UNL1     0.0309
     121 H         -0.338092   6.256978   2.847256 H        1 UNL1     0.0524
     122 H         -2.074181   6.057306   2.577103 H        1 UNL1     0.0524
     123 H         -1.313559   5.313814   4.006235 H        1 UNL1     0.0524
@<TRIPOS>BOND
     1     1     2    1
     2     1    42    1
     3     2     3    2
     4     3     4    1
     5     4     5    2
     6     5     7    1
     7     6    75    1
     8     6    76    1
     9     6    77    1
    10     7     9   am
    11     9    10    1
    12    10    11    2
    13    10    43    1
    14    11    14    1
    15    11    15    1
    16    12    13   ar
    17    12    27   ar
    18    12    43    1
    19    13    14    1
    20    13    30   ar
    21    14    17    2
    22    15    16    1
    23    16    17    1
    24    16    18    1
    25    16    22    1
    26    18    19    1
    27    19    20    1
    28    20    21    1
    29    21    22    1
    30    23    24    1
    31    23    88    1
    32    23    89    1
    33    24    25    1
    34    24    26    1
    35    24    90    1
    36    25    91    1
    37    25    92    1
    38    25    93    1
    39    26    94    1
    40    26    95    1
    41    26    96    1
    42    27    28   ar
    43    28    29   ar
    44    29    30   ar
    45    29    31    1
    46    30    33    1
    47    31    32    1
    48    32    33    1
    49    32    35    1
    50    34    97    1
    51    34    98    1
    52    34    99    1
    53    35    61    1
    54    36    37    1
    55    36    60    1
    56    37    38    1
    57    38    39    1
    58    39    40    1
    59    40    41    1
    60    41    42    1
    61    45   100    1
    62    47   101    1
    63    47   102    1
    64    47   103    1
    65    48   104    1
    66    49   105    1
    67    49   106    1
    68    49   107    1
    69    50   108    1
    70    51    59    1
    71    52   109    1
    72    52   110    1
    73    52   111    1
    74    53    54    1
    75    54    55    2
    76    54    56    1
    77    56   112    1
    78    56   113    1
    79    56   114    1
    80    57   115    1
    81    57   116    1
    82    57   117    1
    83    58   118    1
    84    58   119    1
    85    58   120    1
    86    59   121    1
    87    59   122    1
    88    59   123    1
    89    60    61    2
    90     1    47    1
    91     1    62    1
    92     2    63    1
    93     3    64    1
    94     4    65    1
    95     5     6    1
    96     7     8    2
    97     9    78    1
    98    15    79    1
    99    18    80    1
   100    18    81    1
   101    19    82    1
   102    19    83    1
   103    20    23    1
   104    21    84    1
   105    21    85    1
   106    22    86    1
   107    22    87    1
   108    27    45    1
   109    28    34    1
   110    32    58    1
   111    33    46    2
   112    36    51    1
   113    36    66    1
   114    37    52    1
   115    37    67    1
   116    38    53    1
   117    38    68    1
   118    42    48    1
   119    42    72    1
   120    43    44    2
   121    60    73    1
   122    61    74    1
   123    39    69    1
   124    39    57    1
   125    40    70    1
   126    40    50    1
   127    41    71    1
   128    41    49    1
