@<TRIPOS>MOLECULE
*****
 123 128 0 0 0
SMALL
GASTEIGER

@<TRIPOS>ATOM
     1 C         4.375288   0.889889   -3.174383 C.3        1 UNL1     0.0009
     2 C         6.130929   0.415883   -3.53505 C.2        1 UNL1     -0.0787
     3 C         7.549887   0.687653   -3.441539 C.2        1 UNL1     -0.0649
     4 C         8.833445   -0.302946   -3.928931 C.2        1 UNL1     -0.0542
     5 C         10.21625   -0.570602   -3.776326 C.2        1 UNL1     0.0115
     6 C         11.54157   -0.030329   -3.17221 C.3        1 UNL1     -0.0348
     7 C         10.788089   -1.995479   -4.245064 C.2        1 UNL1     0.2441
     8 O         11.398067   -2.155517   -5.29332 O.2        1 UNL1     -0.2702
     9 N         10.770811   -2.992069   -3.253771 N.am        1 UNL1     -0.2772
     10 C         9.565778   -3.656267   -3.261548 C.2        1 UNL1     0.1049
     11 C         8.577685   -3.077071   -2.603957 C.2        1 UNL1     0.0801
     12 C         7.937974   -4.794443   -4.782121 C.ar        1 UNL1     0.0753
     13 C         6.925339   -3.985004   -4.175501 C.ar        1 UNL1     0.0305
     14 C         7.193798   -3.195266   -2.975795 C.2        1 UNL1     0.0924
     15 N         8.600404   -2.042676   -1.746031 N.pl3        1 UNL1     -0.3170
     16 C         7.285364   -1.915486   -1.176165 C.3        1 UNL1     0.1275
     17 N         6.361102   -2.474329   -2.230279 N.2        1 UNL1     -0.2557
     18 C         7.209933   -2.876971   0.006019 C.3        1 UNL1     0.0016
     19 C         8.344067   -2.556596   0.966587 C.3        1 UNL1     0.0026
     20 N         8.20881   -1.174613   1.40574 N.3        1 UNL1     -0.3018
     21 C         8.208008   -0.178436   0.332428 C.3        1 UNL1     0.0026
     22 C         7.058214   -0.51675   -0.618052 C.3        1 UNL1     0.0016
     23 C         9.052354   -0.858566   2.541165 C.3        1 UNL1     0.0012
     24 C         10.449972   -0.426644   2.070141 C.3        1 UNL1     -0.0339
     25 C         11.539923   -0.876522   3.056891 C.3        1 UNL1     -0.0615
     26 C         10.712803   -0.951687   0.669416 C.3        1 UNL1     -0.0615
     27 C         7.644021   -5.636781   -5.851783 C.ar        1 UNL1     0.1347
     28 C         6.371103   -5.783827   -6.373421 C.ar        1 UNL1     0.0342
     29 C         5.400045   -4.940794   -5.792469 C.ar        1 UNL1     0.1435
     30 C         5.687424   -4.065526   -4.744356 C.ar        1 UNL1     0.0774
     31 O         4.092495   -5.044439   -6.115855 O.3        1 UNL1     -0.4436
     32 C         3.399231   -4.408219   -5.031659 C.3        1 UNL1     0.3143
     33 C         4.411769   -3.466037   -4.412566 C.2        1 UNL1     0.2504
     34 C         5.933332   -6.844647   -7.344563 C.3        1 UNL1     -0.0327
     35 O         2.368047   -3.594663   -5.604405 O.2        1 UNL1     -0.4528
     36 C         -0.42878   -3.501281   -3.039813 C.3        1 UNL1     0.0854
     37 C         -0.38609   -3.028191   -1.535857 C.3        1 UNL1     0.0236
     38 C         -1.453461   -1.894034   -1.153561 C.3        1 UNL1     0.1131
     39 C         -1.563285   -0.588454   -2.039941 C.3        1 UNL1     0.0200
     40 C         -0.187153   0.194449   -2.565069 C.3        1 UNL1     0.0661
     41 C         1.131247   0.643649   -1.596745 C.3        1 UNL1     0.0091
     42 C         2.917417   0.760851   -1.998321 C.3        1 UNL1     0.0661
     43 C         9.292777   -4.774329   -4.17684 C.2        1 UNL1     0.2131
     44 O         10.109412   -5.665346   -4.324942 O.2        1 UNL1     -0.2851
     45 O         8.69622   -6.356526   -6.414173 O.3        1 UNL1     -0.5056
     46 O         4.211356   -2.439816   -3.802192 O.2        1 UNL1     -0.2836
     47 C         3.92764   2.049067   -4.10492 C.3        1 UNL1     -0.0566
     48 O         3.084985   2.098759   -1.381037 O.3        1 UNL1     -0.3909
     49 C         1.023898   -0.067048   -0.266001 C.3        1 UNL1     -0.0577
     50 O         0.273136   -0.361841   -3.780141 O.3        1 UNL1     -0.3910
     51 O         -1.266521   -2.757857   -3.895933 O.3        1 UNL1     -0.3753
     52 C         1.070994   -3.023452   -0.968553 C.3        1 UNL1     -0.0564
     53 O         -1.635598   -1.71475   0.325293 O.3        1 UNL1     -0.4608
     54 C         -2.836516   -1.548691   0.964159 C.2        1 UNL1     0.3042
     55 O         -3.314528   -0.500047   1.395075 O.2        1 UNL1     -0.2512
     56 C         -3.639956   -2.813379   1.072609 C.3        1 UNL1     0.0332
     57 C         -2.737985   -0.822535   -3.099876 C.3        1 UNL1     -0.0567
     58 C         3.065738   -5.522118   -4.01208 C.3        1 UNL1     0.0210
     59 C         -1.76569   -3.479453   -5.021098 C.3        1 UNL1     0.0372
     60 C         0.897737   -3.590801   -3.708767 C.2        1 UNL1     -0.0208
     61 C         1.285759   -3.18159   -4.917374 C.2        1 UNL1     0.0882
     62 H         4.046012   -0.040399   -3.652769 H        1 UNL1     0.0365
     63 H         5.979584   -0.479852   -4.14104 H        1 UNL1     0.0576
     64 H         7.933876   1.535416   -2.869736 H        1 UNL1     0.0615
     65 H         8.354019   -1.063253   -4.551479 H        1 UNL1     0.0622
     66 H         -0.81357   -4.529851   -2.994799 H        1 UNL1     0.0645
     67 H         -0.774034   -3.89389   -0.971387 H        1 UNL1     0.0362
     68 H         -2.385805   -2.449871   -1.336051 H        1 UNL1     0.0741
     69 H         -2.069051   0.178525   -1.468669 H        1 UNL1     0.0359
     70 H         -0.62173   1.170312   -2.854718 H        1 UNL1     0.0600
     71 H         0.825798   1.671544   -1.319094 H        1 UNL1     0.0348
     72 H         2.387974   0.781229   -2.961954 H        1 UNL1     0.0602
     73 H         1.550349   -4.179308   -3.112945 H        1 UNL1     0.0628
     74 H         0.700022   -2.527925   -5.564578 H        1 UNL1     0.1022
     75 H         11.885053   0.875454   -3.727738 H        1 UNL1     0.0279
     76 H         11.496653   0.327296   -2.145977 H        1 UNL1     0.0279
     77 H         12.389214   -0.713906   -3.326879 H        1 UNL1     0.0279
     78 H         10.878783   -2.56409   -2.336573 H        1 UNL1     0.1553
     79 H         9.429136   -1.726125   -1.277062 H        1 UNL1     0.1484
     80 H         6.232122   -2.771002   0.491222 H        1 UNL1     0.0317
     81 H         7.281963   -3.916891   -0.330179 H        1 UNL1     0.0317
     82 H         9.328176   -2.73149   0.507399 H        1 UNL1     0.0428
     83 H         8.272601   -3.254906   1.801037 H        1 UNL1     0.0428
     84 H         8.025245   0.842544   0.681725 H        1 UNL1     0.0428
     85 H         9.183368   -0.11798   -0.169902 H        1 UNL1     0.0428
     86 H         7.00483   0.302361   -1.311014 H        1 UNL1     0.0317
     87 H         6.101732   -0.460255   -0.084154 H        1 UNL1     0.0317
     88 H         8.593312   -0.022991   3.085582 H        1 UNL1     0.0429
     89 H         9.113344   -1.702871   3.239881 H        1 UNL1     0.0429
     90 H         10.480375   0.666518   1.990859 H        1 UNL1     0.0308
     91 H         11.399726   -1.919607   3.355925 H        1 UNL1     0.0233
     92 H         12.532495   -0.760309   2.615412 H        1 UNL1     0.0233
     93 H         11.542624   -0.279459   3.97686 H        1 UNL1     0.0233
     94 H         11.790555   -0.996847   0.479031 H        1 UNL1     0.0233
     95 H         10.309849   -1.963258   0.567847 H        1 UNL1     0.0233
     96 H         10.254386   -0.31128   -0.089334 H        1 UNL1     0.0233
     97 H         4.873159   -6.778152   -7.570047 H        1 UNL1     0.0280
     98 H         6.451445   -6.762087   -8.308928 H        1 UNL1     0.0280
     99 H         6.134053   -7.841039   -6.917937 H        1 UNL1     0.0280
     100 H         9.458029   -5.842491   -6.616753 H        1 UNL1     0.2922
     101 H         3.278855   1.66085   -4.889791 H        1 UNL1     0.0236
     102 H         4.762263   2.620556   -4.509627 H        1 UNL1     0.0236
     103 H         3.309946   2.791985   -3.573207 H        1 UNL1     0.0236
     104 H         2.274867   2.612789   -1.566651 H        1 UNL1     0.2098
     105 H         1.29146   -1.120278   -0.296476 H        1 UNL1     0.0234
     106 H         1.536472   0.429248   0.557945 H        1 UNL1     0.0234
     107 H         0.0   0.0   0.0 H        1 UNL1     0.0234
     108 H         1.182667   -0.035794   -3.922319 H        1 UNL1     0.2098
     109 H         1.81101   -2.727465   -1.725178 H        1 UNL1     0.0234
     110 H         1.184543   -2.394283   -0.079173 H        1 UNL1     0.0234
     111 H         1.376317   -4.022128   -0.62889 H        1 UNL1     0.0234
     112 H         -4.591774   -2.607955   1.571796 H        1 UNL1     0.0342
     113 H         -3.800565   -3.281012   0.102368 H        1 UNL1     0.0342
     114 H         -3.079282   -3.523673   1.695741 H        1 UNL1     0.0342
     115 H         -3.268088   0.110744   -3.334758 H        1 UNL1     0.0234
     116 H         -2.403842   -1.25696   -4.04416 H        1 UNL1     0.0234
     117 H         -3.563049   -1.444415   -2.711964 H        1 UNL1     0.0234
     118 H         1.996242   -5.795605   -4.031844 H        1 UNL1     0.0309
     119 H         3.668927   -6.425129   -4.149689 H        1 UNL1     0.0309
     120 H         3.226282   -5.205224   -2.975784 H        1 UNL1     0.0309
     121 H         -1.982251   -2.756282   -5.806898 H        1 UNL1     0.0524
     122 H         -1.026846   -4.193475   -5.421497 H        1 UNL1     0.0524
     123 H         -2.668039   -4.0204   -4.750475 H        1 UNL1     0.0524
@<TRIPOS>BOND
     1     1     2    1
     2     1    42    1
     3     2     3    2
     4     3     4    1
     5     4     5    2
     6     5     7    1
     7     6    75    1
     8     6    76    1
     9     6    77    1
    10     7     9   am
    11     9    10    1
    12    10    11    2
    13    10    43    1
    14    11    14    1
    15    11    15    1
    16    12    13   ar
    17    12    27   ar
    18    12    43    1
    19    13    14    1
    20    13    30   ar
    21    14    17    2
    22    15    16    1
    23    16    17    1
    24    16    18    1
    25    16    22    1
    26    18    19    1
    27    19    20    1
    28    20    21    1
    29    21    22    1
    30    23    24    1
    31    23    88    1
    32    23    89    1
    33    24    25    1
    34    24    26    1
    35    24    90    1
    36    25    91    1
    37    25    92    1
    38    25    93    1
    39    26    94    1
    40    26    95    1
    41    26    96    1
    42    27    28   ar
    43    28    29   ar
    44    29    30   ar
    45    29    31    1
    46    30    33    1
    47    31    32    1
    48    32    33    1
    49    32    35    1
    50    34    97    1
    51    34    98    1
    52    34    99    1
    53    35    61    1
    54    36    37    1
    55    36    60    1
    56    37    38    1
    57    38    39    1
    58    39    40    1
    59    40    41    1
    60    41    42    1
    61    45   100    1
    62    47   101    1
    63    47   102    1
    64    47   103    1
    65    48   104    1
    66    49   105    1
    67    49   106    1
    68    49   107    1
    69    50   108    1
    70    51    59    1
    71    52   109    1
    72    52   110    1
    73    52   111    1
    74    53    54    1
    75    54    55    2
    76    54    56    1
    77    56   112    1
    78    56   113    1
    79    56   114    1
    80    57   115    1
    81    57   116    1
    82    57   117    1
    83    58   118    1
    84    58   119    1
    85    58   120    1
    86    59   121    1
    87    59   122    1
    88    59   123    1
    89    60    61    2
    90     1    47    1
    91     1    62    1
    92     2    63    1
    93     3    64    1
    94     4    65    1
    95     5     6    1
    96     7     8    2
    97     9    78    1
    98    15    79    1
    99    18    80    1
   100    18    81    1
   101    19    82    1
   102    19    83    1
   103    20    23    1
   104    21    84    1
   105    21    85    1
   106    22    86    1
   107    22    87    1
   108    27    45    1
   109    28    34    1
   110    32    58    1
   111    33    46    2
   112    36    51    1
   113    36    66    1
   114    37    52    1
   115    37    67    1
   116    38    53    1
   117    38    68    1
   118    42    48    1
   119    42    72    1
   120    43    44    2
   121    60    73    1
   122    61    74    1
   123    39    69    1
   124    39    57    1
   125    40    70    1
   126    40    50    1
   127    41    71    1
   128    41    49    1
