@<TRIPOS>MOLECULE
*****
 123 128 0 0 0
SMALL
GASTEIGER

@<TRIPOS>ATOM
     1 C         0.705581   5.31251   0.912763 C.3        1 UNL1     0.0009
     2 C         0.606673   6.9944   0.139135 C.2        1 UNL1     -0.0787
     3 C         1.258409   8.175968   -0.385444 C.2        1 UNL1     -0.0649
     4 C         0.543889   9.501751   -1.158825 C.2        1 UNL1     -0.0542
     5 C         0.771108   10.607537   -2.014797 C.2        1 UNL1     0.0115
     6 C         1.873837   11.456425   -2.705233 C.3        1 UNL1     -0.0348
     7 C         -0.482998   11.299286   -2.739841 C.2        1 UNL1     0.2441
     8 O         -0.974434   12.352551   -2.3582 O.2        1 UNL1     -0.2702
     9 N         -0.813481   10.753863   -3.992617 N.am        1 UNL1     -0.2772
     10 C         -1.68817   9.702282   -3.842885 C.2        1 UNL1     0.1049
     11 C         -1.148148   8.533273   -3.549599 C.2        1 UNL1     0.0801
     12 C         -3.822301   9.042224   -2.717211 C.ar        1 UNL1     0.0753
     13 C         -3.124679   7.884223   -2.247139 C.ar        1 UNL1     0.0305
     14 C         -1.802957   7.527437   -2.757832 C.2        1 UNL1     0.0924
     15 N         0.1384   8.145149   -3.575689 N.pl3        1 UNL1     -0.3170
     16 C         0.174474   6.726936   -3.335634 C.3        1 UNL1     0.1275
     17 N         -1.060532   6.451409   -2.513096 N.2        1 UNL1     -0.2557
     18 C         -0.047387   6.03544   -4.677391 C.3        1 UNL1     0.0016
     19 C         1.000861   6.532704   -5.659987 C.3        1 UNL1     0.0026
     20 N         2.322145   6.230703   -5.127041 N.3        1 UNL1     -0.3018
     21 C         2.606471   6.802208   -3.809122 C.3        1 UNL1     0.0026
     22 C         1.544277   6.285851   -2.837004 C.3        1 UNL1     0.0016
     23 C         3.376085   6.388845   -6.109306 C.3        1 UNL1     0.0012
     24 C         2.820913   7.013032   -7.39924 C.3        1 UNL1     -0.0339
     25 C         1.554181   6.284061   -7.876782 C.3        1 UNL1     -0.0615
     26 C         2.568068   8.496389   -7.193081 C.3        1 UNL1     -0.0615
     27 C         -5.129255   9.30958   -2.316575 C.ar        1 UNL1     0.1347
     28 C         -5.852826   8.474589   -1.483938 C.ar        1 UNL1     0.0342
     29 C         -5.129181   7.366334   -0.994781 C.ar        1 UNL1     0.1435
     30 C         -3.807631   7.105156   -1.3588 C.ar        1 UNL1     0.0774
     31 O         -5.727303   6.402008   -0.261752 O.3        1 UNL1     -0.4436
     32 C         -4.84807   5.271705   -0.362935 C.3        1 UNL1     0.3143
     33 C         -3.490842   5.854596   -0.701145 C.2        1 UNL1     0.2504
     34 C         -7.329176   8.562151   -1.214082 C.3        1 UNL1     -0.0327
     35 O         -4.740993   4.696871   0.945251 O.2        1 UNL1     -0.4528
     36 C         -4.134702   0.988794   0.406115 C.3        1 UNL1     0.0854
     37 C         -2.982511   0.274497   -0.399961 C.3        1 UNL1     0.0236
     38 C         -2.144152   -0.807877   0.435121 C.3        1 UNL1     0.1131
     39 C         -1.540913   -0.416787   1.844171 C.3        1 UNL1     0.0200
     40 C         -0.788607   1.056002   2.061807 C.3        1 UNL1     0.0661
     41 C         0.419126   1.711471   1.067146 C.3        1 UNL1     0.0091
     42 C         0.794958   3.456469   0.643905 C.3        1 UNL1     0.0661
     43 C         -3.139516   9.901786   -3.715818 C.2        1 UNL1     0.2131
     44 O         -3.72801   10.655931   -4.469262 O.2        1 UNL1     -0.2851
     45 O         -5.720282   10.481613   -2.783976 O.3        1 UNL1     -0.5056
     46 O         -2.394591   5.399875   -0.461738 O.2        1 UNL1     -0.2836
     47 C         1.075427   5.431198   2.415796 C.3        1 UNL1     -0.0566
     48 O         2.250243   3.323522   0.896065 O.3        1 UNL1     -0.3909
     49 C         0.469449   0.923843   -0.22305 C.3        1 UNL1     -0.0577
     50 O         -1.729946   2.054362   2.400749 O.3        1 UNL1     -0.3910
     51 O         -4.174937   0.722538   1.789921 O.3        1 UNL1     -0.3753
     52 C         -2.303878   1.240994   -1.424798 C.3        1 UNL1     -0.0564
     53 O         -1.306897   -1.710969   -0.42264 O.3        1 UNL1     -0.4608
     54 C         -1.283047   -1.708809   -1.792807 C.2        1 UNL1     0.3042
     55 O         -2.223196   -1.490206   -2.555807 O.2        1 UNL1     -0.2512
     56 C         0.08198   -1.952133   -2.370916 C.3        1 UNL1     0.0332
     57 C         -2.578602   -0.896164   2.962909 C.3        1 UNL1     -0.0567
     58 C         -5.345999   4.436477   -1.565428 C.3        1 UNL1     0.0210
     59 C         -4.869018   -0.470734   2.150778 C.3        1 UNL1     0.0372
     60 C         -4.186148   2.46824   0.251986 C.2        1 UNL1     -0.0208
     61 C         -4.348406   3.427301   1.164466 C.2        1 UNL1     0.0882
     62 H         -0.388034   5.246745   0.863836 H        1 UNL1     0.0365
     63 H         -0.474405   7.14758   0.122488 H        1 UNL1     0.0576
     64 H         2.345398   8.239151   -0.472459 H        1 UNL1     0.0615
     65 H         -0.522043   9.384547   -0.945438 H        1 UNL1     0.0622
     66 H         -5.062807   0.606719   -0.041866 H        1 UNL1     0.0645
     67 H         -3.517902   -0.369715   -1.118923 H        1 UNL1     0.0362
     68 H         -2.94358   -1.532998   0.651077 H        1 UNL1     0.0741
     69 H         -0.759752   -1.121584   2.096077 H        1 UNL1     0.0359
     70 H         -0.246196   0.855447   3.005538 H        1 UNL1     0.0600
     71 H         1.322383   1.335359   1.586399 H        1 UNL1     0.0348
     72 H         0.188293   3.490635   1.560478 H        1 UNL1     0.0602
     73 H         -4.198032   2.711519   -0.781417 H        1 UNL1     0.0628
     74 H         -4.290546   3.269466   2.241952 H        1 UNL1     0.1022
     75 H         2.607524   11.833105   -1.952339 H        1 UNL1     0.0279
     76 H         2.512936   10.936462   -3.415345 H        1 UNL1     0.0279
     77 H         1.487322   12.398306   -3.121366 H        1 UNL1     0.0279
     78 H         0.026075   10.392575   -4.440606 H        1 UNL1     0.1553
     79 H         0.855961   8.629059   -4.083498 H        1 UNL1     0.1484
     80 H         0.019521   4.95   -4.535587 H        1 UNL1     0.0317
     81 H         -1.052492   6.239993   -5.061544 H        1 UNL1     0.0317
     82 H         0.891864   7.608483   -5.861808 H        1 UNL1     0.0428
     83 H         0.823186   6.028385   -6.610326 H        1 UNL1     0.0428
     84 H         3.572769   6.495149   -3.397062 H        1 UNL1     0.0428
     85 H         2.667433   7.898754   -3.843582 H        1 UNL1     0.0428
     86 H         1.858572   6.61409   -1.863625 H        1 UNL1     0.0317
     87 H         1.600482   5.192699   -2.766613 H        1 UNL1     0.0317
     88 H         4.133493   7.065039   -5.691705 H        1 UNL1     0.0429
     89 H         3.876107   5.43362   -6.314968 H        1 UNL1     0.0429
     90 H         3.580652   6.945326   -8.186911 H        1 UNL1     0.0308
     91 H         1.547813   6.169   -8.964818 H        1 UNL1     0.0233
     92 H         1.476995   5.298597   -7.411474 H        1 UNL1     0.0233
     93 H         0.636703   6.821668   -7.608365 H        1 UNL1     0.0233
     94 H         1.507902   8.723976   -7.348283 H        1 UNL1     0.0233
     95 H         2.827622   8.780945   -6.169547 H        1 UNL1     0.0233
     96 H         3.156806   9.101887   -7.887867 H        1 UNL1     0.0233
     97 H         -7.612131   9.527656   -0.805466 H        1 UNL1     0.0280
     98 H         -7.925016   8.436096   -2.127505 H        1 UNL1     0.0280
     99 H         -7.61901   7.782445   -0.490791 H        1 UNL1     0.0280
     100 H         -5.114852   11.176529   -2.974158 H        1 UNL1     0.2922
     101 H         0.496413   6.232295   2.874756 H        1 UNL1     0.0236
     102 H         2.144929   5.55035   2.585948 H        1 UNL1     0.0236
     103 H         0.799757   4.526384   2.982815 H        1 UNL1     0.0236
     104 H         2.360846   2.828791   1.731516 H        1 UNL1     0.2098
     105 H         -0.069997   1.380253   -1.049186 H        1 UNL1     0.0234
     106 H         1.470828   0.633211   -0.540381 H        1 UNL1     0.0234
     107 H         0.0   -0.0   0.0 H        1 UNL1     0.0234
     108 H         -2.349913   2.135213   1.650501 H        1 UNL1     0.2098
     109 H         -1.291305   0.912968   -1.698307 H        1 UNL1     0.0234
     110 H         -2.897912   1.391797   -2.332612 H        1 UNL1     0.0234
     111 H         -2.187455   2.251876   -1.01187 H        1 UNL1     0.0234
     112 H         0.006391   -2.61724   -3.236517 H        1 UNL1     0.0342
     113 H         0.586585   -1.0238   -2.634384 H        1 UNL1     0.0342
     114 H         0.691762   -2.458019   -1.609726 H        1 UNL1     0.0342
     115 H         -2.086524   -1.065841   3.930513 H        1 UNL1     0.0234
     116 H         -3.402852   -0.200236   3.131268 H        1 UNL1     0.0234
     117 H         -3.009357   -1.892816   2.76523 H        1 UNL1     0.0234
     118 H         -4.627949   3.646563   -1.847291 H        1 UNL1     0.0309
     119 H         -6.328344   3.983946   -1.396858 H        1 UNL1     0.0309
     120 H         -5.439188   5.03134   -2.480612 H        1 UNL1     0.0309
     121 H         -5.864108   -0.183704   2.489548 H        1 UNL1     0.0524
     122 H         -4.994201   -1.156557   1.29637 H        1 UNL1     0.0524
     123 H         -4.337998   -0.989107   2.944126 H        1 UNL1     0.0524
@<TRIPOS>BOND
     1     1     2    1
     2     1    42    1
     3     2     3    2
     4     3     4    1
     5     4     5    2
     6     5     7    1
     7     6    75    1
     8     6    76    1
     9     6    77    1
    10     7     9   am
    11     9    10    1
    12    10    11    2
    13    10    43    1
    14    11    14    1
    15    11    15    1
    16    12    13   ar
    17    12    27   ar
    18    12    43    1
    19    13    14    1
    20    13    30   ar
    21    14    17    2
    22    15    16    1
    23    16    17    1
    24    16    18    1
    25    16    22    1
    26    18    19    1
    27    19    20    1
    28    20    21    1
    29    21    22    1
    30    23    24    1
    31    23    88    1
    32    23    89    1
    33    24    25    1
    34    24    26    1
    35    24    90    1
    36    25    91    1
    37    25    92    1
    38    25    93    1
    39    26    94    1
    40    26    95    1
    41    26    96    1
    42    27    28   ar
    43    28    29   ar
    44    29    30   ar
    45    29    31    1
    46    30    33    1
    47    31    32    1
    48    32    33    1
    49    32    35    1
    50    34    97    1
    51    34    98    1
    52    34    99    1
    53    35    61    1
    54    36    37    1
    55    36    60    1
    56    37    38    1
    57    38    39    1
    58    39    40    1
    59    40    41    1
    60    41    42    1
    61    45   100    1
    62    47   101    1
    63    47   102    1
    64    47   103    1
    65    48   104    1
    66    49   105    1
    67    49   106    1
    68    49   107    1
    69    50   108    1
    70    51    59    1
    71    52   109    1
    72    52   110    1
    73    52   111    1
    74    53    54    1
    75    54    55    2
    76    54    56    1
    77    56   112    1
    78    56   113    1
    79    56   114    1
    80    57   115    1
    81    57   116    1
    82    57   117    1
    83    58   118    1
    84    58   119    1
    85    58   120    1
    86    59   121    1
    87    59   122    1
    88    59   123    1
    89    60    61    2
    90     1    47    1
    91     1    62    1
    92     2    63    1
    93     3    64    1
    94     4    65    1
    95     5     6    1
    96     7     8    2
    97     9    78    1
    98    15    79    1
    99    18    80    1
   100    18    81    1
   101    19    82    1
   102    19    83    1
   103    20    23    1
   104    21    84    1
   105    21    85    1
   106    22    86    1
   107    22    87    1
   108    27    45    1
   109    28    34    1
   110    32    58    1
   111    33    46    2
   112    36    51    1
   113    36    66    1
   114    37    52    1
   115    37    67    1
   116    38    53    1
   117    38    68    1
   118    42    48    1
   119    42    72    1
   120    43    44    2
   121    60    73    1
   122    61    74    1
   123    39    69    1
   124    39    57    1
   125    40    70    1
   126    40    50    1
   127    41    71    1
   128    41    49    1
