@<TRIPOS>MOLECULE
*****
 123 128 0 0 0
SMALL
GASTEIGER

@<TRIPOS>ATOM
     1 C         5.164695   1.754729   0.496107 C.3        1 UNL1     0.0009
     2 C         6.601005   2.563142   -0.352727 C.2        1 UNL1     -0.0787
     3 C         7.883472   2.46695   -1.017612 C.2        1 UNL1     -0.0649
     4 C         8.759955   3.703637   -1.771761 C.2        1 UNL1     -0.0542
     5 C         9.780288   3.99814   -2.709452 C.2        1 UNL1     0.0115
     6 C         10.909856   3.374637   -3.574695 C.3        1 UNL1     -0.0348
     7 C         9.874257   5.481912   -3.31491 C.2        1 UNL1     0.2441
     8 O         10.696876   6.304308   -2.936111 O.2        1 UNL1     -0.2702
     9 N         9.124612   5.688744   -4.48598 N.am        1 UNL1     -0.2772
     10 C         7.841208   6.073662   -4.172877 C.2        1 UNL1     0.1049
     11 C         6.996395   5.101032   -3.882184 C.2        1 UNL1     0.0801
     12 C         6.539872   7.677805   -2.761997 C.ar        1 UNL1     0.0753
     13 C         5.781866   6.548674   -2.31579 C.ar        1 UNL1     0.0305
     14 C         5.900837   5.243543   -2.961956 C.2        1 UNL1     0.0924
     15 N         7.120739   3.772309   -4.042064 N.pl3        1 UNL1     -0.3170
     16 C         5.851385   3.171393   -3.729182 C.3        1 UNL1     0.1275
     17 N         5.213135   4.125207   -2.749081 N.2        1 UNL1     -0.2557
     18 C         4.999359   3.230265   -4.993416 C.3        1 UNL1     0.0016
     19 C         5.755866   2.547835   -6.121944 C.3        1 UNL1     0.0026
     20 N         6.027406   1.169807   -5.736804 N.3        1 UNL1     -0.3018
     21 C         6.790081   1.009518   -4.497045 C.3        1 UNL1     0.0026
     22 C         6.009708   1.698353   -3.376144 C.3        1 UNL1     0.0016
     23 C         6.47369   0.351542   -6.846722 C.3        1 UNL1     0.0012
     24 C         5.319243   0.101315   -7.829775 C.3        1 UNL1     -0.0339
     25 C         5.354577   1.094281   -9.003157 C.3        1 UNL1     -0.0615
     26 C         5.350431   -1.337827   -8.314212 C.3        1 UNL1     -0.0615
     27 C         6.333294   8.944893   -2.22169 C.ar        1 UNL1     0.1347
     28 C         5.373232   9.212645   -1.26219 C.ar        1 UNL1     0.0342
     29 C         4.672721   8.077042   -0.803 C.ar        1 UNL1     0.1435
     30 C         4.894075   6.795615   -1.309131 C.ar        1 UNL1     0.0774
     31 O         3.630992   8.188784   0.04983 O.3        1 UNL1     -0.4436
     32 C         2.91091   6.955185   -0.093649 C.3        1 UNL1     0.3143
     33 C         3.925784   5.963658   -0.625738 C.2        1 UNL1     0.2504
     34 C         4.924428   10.577916   -0.820932 C.3        1 UNL1     -0.0327
     35 O         2.549879   6.517184   1.22205 O.2        1 UNL1     -0.4528
     36 C         -0.690544   4.581329   0.821774 C.3        1 UNL1     0.0854
     37 C         -0.993692   3.320965   -0.076616 C.3        1 UNL1     0.0236
     38 C         -1.59327   2.058678   0.710076 C.3        1 UNL1     0.1131
     39 C         -0.86778   1.527773   2.011641 C.3        1 UNL1     0.0200
     40 C         0.793559   1.384213   2.053877 C.3        1 UNL1     0.0661
     41 C         1.754675   0.61731   0.885235 C.3        1 UNL1     0.0091
     42 C         3.462216   0.982304   0.322662 C.3        1 UNL1     0.0661
     43 C         7.490948   7.471985   -3.882422 C.2        1 UNL1     0.2131
     44 O         7.890244   8.371015   -4.600088 O.2        1 UNL1     -0.2851
     45 O         7.144625   9.981282   -2.678939 O.3        1 UNL1     -0.5056
     46 O         3.94314   4.760059   -0.495731 O.2        1 UNL1     -0.2836
     47 C         5.560575   1.324797   1.934307 C.3        1 UNL1     -0.0566
     48 O         3.912431   -0.42831   0.403845 O.3        1 UNL1     -0.3909
     49 C         0.921635   0.384515   -0.355468 C.3        1 UNL1     -0.0577
     50 O         1.392008   2.602547   2.447889 O.3        1 UNL1     -0.3910
     51 O         -0.815371   4.390603   2.212986 O.3        1 UNL1     -0.3753
     52 C         0.051758   3.162504   -1.228515 C.3        1 UNL1     -0.0564
     53 O         -2.193989   1.019549   -0.190854 O.3        1 UNL1     -0.4608
     54 C         -2.427053   -0.287705   0.147817 C.2        1 UNL1     0.3042
     55 O         -1.856441   -1.285863   -0.290273 O.2        1 UNL1     -0.2512
     56 C         -3.467614   -0.4553   1.218264 C.3        1 UNL1     0.0332
     57 C         -1.590493   2.195078   3.272816 C.3        1 UNL1     -0.0567
     58 C         1.836172   7.199675   -1.178404 C.3        1 UNL1     0.0210
     59 C         -1.130509   5.568751   2.953609 C.3        1 UNL1     0.0372
     60 C         0.63785   5.212169   0.592487 C.2        1 UNL1     -0.0208
     61 C         1.549655   5.647945   1.462806 C.2        1 UNL1     0.0882
     62 H         4.687525   2.738269   0.583677 H        1 UNL1     0.0365
     63 H         6.333411   3.616551   -0.24693 H        1 UNL1     0.0576
     64 H         8.342448   1.500797   -1.238964 H        1 UNL1     0.0615
     65 H         8.271526   4.618221   -1.424692 H        1 UNL1     0.0622
     66 H         -1.435881   5.327156   0.511514 H        1 UNL1     0.0645
     67 H         -1.859191   3.629676   -0.68831 H        1 UNL1     0.0362
     68 H         -2.541111   2.494184   1.061438 H        1 UNL1     0.0741
     69 H         -1.198215   0.51615   2.206165 H        1 UNL1     0.0359
     70 H         0.905523   0.723453   2.93474 H        1 UNL1     0.0600
     71 H         1.799197   -0.404076   1.311553 H        1 UNL1     0.0348
     72 H         3.355068   1.469753   1.302574 H        1 UNL1     0.0602
     73 H         0.756222   5.410224   -0.443858 H        1 UNL1     0.0628
     74 H         1.531626   5.436575   2.532495 H        1 UNL1     0.1022
     75 H         10.953492   2.268902   -3.424765 H        1 UNL1     0.0279
     76 H         10.79834   3.460577   -4.653235 H        1 UNL1     0.0279
     77 H         11.914452   3.677897   -3.245271 H        1 UNL1     0.0279
     78 H         9.064024   4.819057   -5.011385 H        1 UNL1     0.1553
     79 H         7.786951   3.345516   -4.659269 H        1 UNL1     0.1484
     80 H         4.038538   2.738047   -4.800257 H        1 UNL1     0.0317
     81 H         4.771685   4.266916   -5.263914 H        1 UNL1     0.0317
     82 H         6.686057   3.080418   -6.36895 H        1 UNL1     0.0428
     83 H         5.131262   2.602792   -7.014076 H        1 UNL1     0.0428
     84 H         6.911448   -0.033484   -4.188457 H        1 UNL1     0.0428
     85 H         7.8198   1.378861   -4.599919 H        1 UNL1     0.0428
     86 H         6.525808   1.448035   -2.467866 H        1 UNL1     0.0317
     87 H         5.030754   1.219455   -3.252033 H        1 UNL1     0.0317
     88 H         7.269461   0.894635   -7.373119 H        1 UNL1     0.0429
     89 H         6.907186   -0.593931   -6.496099 H        1 UNL1     0.0429
     90 H         4.365703   0.218903   -7.301429 H        1 UNL1     0.0308
     91 H         6.317279   1.062645   -9.522105 H        1 UNL1     0.0233
     92 H         4.555512   0.878261   -9.716207 H        1 UNL1     0.0233
     93 H         5.202357   2.130593   -8.678007 H        1 UNL1     0.0233
     94 H         4.656677   -1.4696   -9.151575 H        1 UNL1     0.0233
     95 H         6.354487   -1.592292   -8.66504 H        1 UNL1     0.0233
     96 H         5.067791   -2.032895   -7.518621 H        1 UNL1     0.0233
     97 H         4.124352   10.526841   -0.088469 H        1 UNL1     0.0280
     98 H         5.733743   11.145152   -0.342907 H        1 UNL1     0.0280
     99 H         4.559471   11.145939   -1.692283 H        1 UNL1     0.0280
     100 H         6.676921   10.732056   -3.000208 H        1 UNL1     0.2922
     101 H         4.69794   0.889796   2.43858 H        1 UNL1     0.0236
     102 H         6.009983   2.13032   2.51409 H        1 UNL1     0.0236
     103 H         6.317795   0.523044   1.93322 H        1 UNL1     0.0236
     104 H         4.331201   -0.554437   1.277741 H        1 UNL1     0.2098
     105 H         0.708294   1.28345   -0.928366 H        1 UNL1     0.0234
     106 H         1.292427   -0.402645   -1.011836 H        1 UNL1     0.0234
     107 H         0.0   -0.0   0.0 H        1 UNL1     0.0234
     108 H         1.198538   3.259342   1.751501 H        1 UNL1     0.2098
     109 H         1.077903   3.062422   -0.848091 H        1 UNL1     0.0234
     110 H         -0.172548   2.327943   -1.901522 H        1 UNL1     0.0234
     111 H         0.063552   4.04052   -1.887982 H        1 UNL1     0.0234
     112 H         -3.589886   -1.516477   1.455537 H        1 UNL1     0.0342
     113 H         -3.232013   0.120297   2.112145 H        1 UNL1     0.0342
     114 H         -4.42521   -0.085217   0.826838 H        1 UNL1     0.0342
     115 H         -2.659842   1.945484   3.310031 H        1 UNL1     0.0234
     116 H         -1.154356   1.915241   4.233818 H        1 UNL1     0.0234
     117 H         -1.630393   3.296917   3.224854 H        1 UNL1     0.0234
     118 H         0.933605   7.683819   -0.766114 H        1 UNL1     0.0309
     119 H         2.204979   7.789936   -2.023257 H        1 UNL1     0.0309
     120 H         1.450128   6.267552   -1.60528 H        1 UNL1     0.0309
     121 H         -0.310218   6.272997   2.817528 H        1 UNL1     0.0524
     122 H         -2.050648   6.056906   2.591553 H        1 UNL1     0.0524
     123 H         -1.248914   5.330205   4.006781 H        1 UNL1     0.0524
@<TRIPOS>BOND
     1     1     2    1
     2     1    42    1
     3     2     3    2
     4     3     4    1
     5     4     5    2
     6     5     7    1
     7     6    75    1
     8     6    76    1
     9     6    77    1
    10     7     9   am
    11     9    10    1
    12    10    11    2
    13    10    43    1
    14    11    14    1
    15    11    15    1
    16    12    13   ar
    17    12    27   ar
    18    12    43    1
    19    13    14    1
    20    13    30   ar
    21    14    17    2
    22    15    16    1
    23    16    17    1
    24    16    18    1
    25    16    22    1
    26    18    19    1
    27    19    20    1
    28    20    21    1
    29    21    22    1
    30    23    24    1
    31    23    88    1
    32    23    89    1
    33    24    25    1
    34    24    26    1
    35    24    90    1
    36    25    91    1
    37    25    92    1
    38    25    93    1
    39    26    94    1
    40    26    95    1
    41    26    96    1
    42    27    28   ar
    43    28    29   ar
    44    29    30   ar
    45    29    31    1
    46    30    33    1
    47    31    32    1
    48    32    33    1
    49    32    35    1
    50    34    97    1
    51    34    98    1
    52    34    99    1
    53    35    61    1
    54    36    37    1
    55    36    60    1
    56    37    38    1
    57    38    39    1
    58    39    40    1
    59    40    41    1
    60    41    42    1
    61    45   100    1
    62    47   101    1
    63    47   102    1
    64    47   103    1
    65    48   104    1
    66    49   105    1
    67    49   106    1
    68    49   107    1
    69    50   108    1
    70    51    59    1
    71    52   109    1
    72    52   110    1
    73    52   111    1
    74    53    54    1
    75    54    55    2
    76    54    56    1
    77    56   112    1
    78    56   113    1
    79    56   114    1
    80    57   115    1
    81    57   116    1
    82    57   117    1
    83    58   118    1
    84    58   119    1
    85    58   120    1
    86    59   121    1
    87    59   122    1
    88    59   123    1
    89    60    61    2
    90     1    47    1
    91     1    62    1
    92     2    63    1
    93     3    64    1
    94     4    65    1
    95     5     6    1
    96     7     8    2
    97     9    78    1
    98    15    79    1
    99    18    80    1
   100    18    81    1
   101    19    82    1
   102    19    83    1
   103    20    23    1
   104    21    84    1
   105    21    85    1
   106    22    86    1
   107    22    87    1
   108    27    45    1
   109    28    34    1
   110    32    58    1
   111    33    46    2
   112    36    51    1
   113    36    66    1
   114    37    52    1
   115    37    67    1
   116    38    53    1
   117    38    68    1
   118    42    48    1
   119    42    72    1
   120    43    44    2
   121    60    73    1
   122    61    74    1
   123    39    69    1
   124    39    57    1
   125    40    70    1
   126    40    50    1
   127    41    71    1
   128    41    49    1
