@<TRIPOS>MOLECULE
*****
 123 128 0 0 0
SMALL
GASTEIGER

@<TRIPOS>ATOM
     1 C         5.156498   1.77291   0.516323 C.3        1 UNL1     0.0009
     2 C         6.59293   2.587274   -0.326595 C.2        1 UNL1     -0.0787
     3 C         7.878126   2.496317   -0.986931 C.2        1 UNL1     -0.0649
     4 C         8.75285   3.736846   -1.736801 C.2        1 UNL1     -0.0542
     5 C         9.775489   4.035882   -2.670539 C.2        1 UNL1     0.0115
     6 C         10.910415   3.417248   -3.532256 C.3        1 UNL1     -0.0348
     7 C         9.866279   5.520534   -3.274323 C.2        1 UNL1     0.2441
     8 O         10.684549   6.345549   -2.891819 O.2        1 UNL1     -0.2702
     9 N         9.120121   5.725723   -4.447906 N.am        1 UNL1     -0.2772
     10 C         7.834213   6.105721   -4.139095 C.2        1 UNL1     0.1049
     11 C         6.991876   5.129783   -3.852325 C.2        1 UNL1     0.0801
     12 C         6.522008   7.703872   -2.731485 C.ar        1 UNL1     0.0753
     13 C         5.766483   6.571607   -2.28903 C.ar        1 UNL1     0.0305
     14 C         5.892498   5.267502   -2.935931 C.2        1 UNL1     0.0924
     15 N         7.121597   3.801663   -4.012946 N.pl3        1 UNL1     -0.3170
     16 C         5.853302   3.195885   -3.705188 C.3        1 UNL1     0.1275
     17 N         5.208078   4.146497   -2.726543 N.2        1 UNL1     -0.2557
     18 C         5.005635   3.25283   -4.972436 C.3        1 UNL1     0.0016
     19 C         5.768669   2.574161   -6.098837 C.3        1 UNL1     0.0026
     20 N         6.043795   1.196773   -5.713954 N.3        1 UNL1     -0.3018
     21 C         6.802567   1.038112   -4.471593 C.3        1 UNL1     0.0026
     22 C         6.015671   1.723106   -3.3529 C.3        1 UNL1     0.0016
     23 C         6.497034   0.381134   -6.822986 C.3        1 UNL1     0.0012
     24 C         5.347052   0.127635   -7.810425 C.3        1 UNL1     -0.0339
     25 C         5.42331   1.076302   -9.018014 C.3        1 UNL1     -0.0615
     26 C         5.343249   -1.328346   -8.242726 C.3        1 UNL1     -0.0615
     27 C         6.308905   8.969714   -2.190792 C.ar        1 UNL1     0.1347
     28 C         5.344427   9.233126   -1.234525 C.ar        1 UNL1     0.0342
     29 C         4.646373   8.094585   -0.778886 C.ar        1 UNL1     0.1435
     30 C         4.874179   6.814426   -1.285362 C.ar        1 UNL1     0.0774
     31 O         3.601177   8.20179   0.070278 O.3        1 UNL1     -0.4436
     32 C         2.886079   6.96573   -0.076906 C.3        1 UNL1     0.3143
     33 C         3.906442   5.978358   -0.606215 C.2        1 UNL1     0.2504
     34 C         4.889104   10.596367   -0.793667 C.3        1 UNL1     -0.0327
     35 O         2.521889   6.525232   1.237088 O.2        1 UNL1     -0.4528
     36 C         -0.710053   4.578058   0.82338 C.3        1 UNL1     0.0854
     37 C         -1.005403   3.317424   -0.077227 C.3        1 UNL1     0.0236
     38 C         -1.603249   2.052267   0.706163 C.3        1 UNL1     0.1131
     39 C         -0.880545   1.5228   2.009863 C.3        1 UNL1     0.0200
     40 C         0.781138   1.385201   2.057968 C.3        1 UNL1     0.0661
     41 C         1.749229   0.622835   0.892117 C.3        1 UNL1     0.0091
     42 C         3.457457   0.994502   0.33604 C.3        1 UNL1     0.0661
     43 C         7.477857   7.502506   -3.848653 C.2        1 UNL1     0.2131
     44 O         7.876488   8.403623   -4.564067 O.2        1 UNL1     -0.2851
     45 O         7.118131   10.009441   -2.64418 O.3        1 UNL1     -0.5056
     46 O         3.927678   4.774712   -0.477225 O.2        1 UNL1     -0.2836
     47 C         5.548738   1.343103   1.955558 C.3        1 UNL1     -0.0566
     48 O         3.912471   -0.414551   0.417585 O.3        1 UNL1     -0.3909
     49 C         0.921516   0.388162   -0.351793 C.3        1 UNL1     -0.0577
     50 O         1.373756   2.605328   2.455231 O.3        1 UNL1     -0.3910
     51 O         -0.839208   4.385617   2.213962 O.3        1 UNL1     -0.3753
     52 C         0.044762   3.163786   -1.225486 C.3        1 UNL1     -0.0564
     53 O         -2.196955   1.011795   -0.19786 O.3        1 UNL1     -0.4608
     54 C         -2.426515   -0.296599   0.138795 C.2        1 UNL1     0.3042
     55 O         -1.84971   -1.292187   -0.297026 O.2        1 UNL1     -0.2512
     56 C         -3.471815   -0.469043   1.203842 C.3        1 UNL1     0.0332
     57 C         -1.61021   2.186346   3.269018 C.3        1 UNL1     -0.0567
     58 C         1.814385   7.207325   -1.165315 C.3        1 UNL1     0.0210
     59 C         -1.16127   5.561946   2.954497 C.3        1 UNL1     0.0372
     60 C         0.616872   5.213897   0.599456 C.2        1 UNL1     -0.0208
     61 C         1.52395   5.65217   1.473452 C.2        1 UNL1     0.0882
     62 H         4.675464   2.754641   0.603052 H        1 UNL1     0.0365
     63 H         6.321151   3.639614   -0.220821 H        1 UNL1     0.0576
     64 H         8.341386   1.532029   -1.207489 H        1 UNL1     0.0615
     65 H         8.259871   4.649344   -1.390679 H        1 UNL1     0.0622
     66 H         -1.456956   5.321471   0.5111 H        1 UNL1     0.0645
     67 H         -1.869799   3.623565   -0.691765 H        1 UNL1     0.0362
     68 H         -2.553919   2.484028   1.054491 H        1 UNL1     0.0741
     69 H         -1.208023   0.509815   2.202286 H        1 UNL1     0.0359
     70 H         0.892311   0.724049   2.938638 H        1 UNL1     0.0600
     71 H         1.795903   -0.39877   1.317678 H        1 UNL1     0.0348
     72 H         3.345015   1.48067   1.315996 H        1 UNL1     0.0602
     73 H         0.738265   5.41332   -0.436277 H        1 UNL1     0.0628
     74 H         1.502827   5.439764   2.54288 H        1 UNL1     0.1022
     75 H         10.941069   2.308514   -3.402633 H        1 UNL1     0.0279
     76 H         10.81434   3.524492   -4.610373 H        1 UNL1     0.0279
     77 H         11.913422   3.70407   -3.183815 H        1 UNL1     0.0279
     78 H         9.064571   4.856301   -4.974306 H        1 UNL1     0.1553
     79 H         7.791568   3.37784   -4.628124 H        1 UNL1     0.1484
     80 H         4.045908   2.756971   -4.783189 H        1 UNL1     0.0317
     81 H         4.775194   4.288898   -5.242826 H        1 UNL1     0.0317
     82 H         6.697815   3.110323   -6.342005 H        1 UNL1     0.0428
     83 H         5.147092   2.627675   -6.993168 H        1 UNL1     0.0428
     84 H         6.926588   -0.004726   -4.163504 H        1 UNL1     0.0428
     85 H         7.831309   1.411262   -4.570418 H        1 UNL1     0.0428
     86 H         6.529393   1.473826   -2.44299 H        1 UNL1     0.0317
     87 H         5.038014   1.240564   -3.232754 H        1 UNL1     0.0317
     88 H         7.292731   0.927575   -7.346019 H        1 UNL1     0.0429
     89 H         6.932675   -0.563086   -6.471647 H        1 UNL1     0.0429
     90 H         4.391356   0.290501   -7.29824 H        1 UNL1     0.0308
     91 H         6.381046   0.981456   -9.538446 H        1 UNL1     0.0233
     92 H         4.611696   0.87325   -9.720625 H        1 UNL1     0.0233
     93 H         5.321246   2.129327   -8.728952 H        1 UNL1     0.0233
     94 H         4.65545   -1.470995   -9.083214 H        1 UNL1     0.0233
     95 H         6.34362   -1.622946   -8.572016 H        1 UNL1     0.0233
     96 H         5.032368   -1.986205   -7.426306 H        1 UNL1     0.0233
     97 H         4.086582   10.541737   -0.064144 H        1 UNL1     0.0280
     98 H         5.694635   11.166086   -0.312215 H        1 UNL1     0.0280
     99 H         4.525243   11.16386   -1.665821 H        1 UNL1     0.0280
     100 H         6.648879   10.758812   -2.966463 H        1 UNL1     0.2922
     101 H         4.682651   0.915926   2.460601 H        1 UNL1     0.0236
     102 H         6.004267   2.146395   2.533656 H        1 UNL1     0.0236
     103 H         6.299713   0.535497   1.95641 H        1 UNL1     0.0236
     104 H         4.323472   -0.541469   1.295047 H        1 UNL1     0.2098
     105 H         0.706996   1.286842   -0.924652 H        1 UNL1     0.0234
     106 H         1.297515   -0.397057   -1.007524 H        1 UNL1     0.0234
     107 H         0.0   -0.0   0.0 H        1 UNL1     0.0234
     108 H         1.190094   3.259106   1.753369 H        1 UNL1     0.2098
     109 H         1.069883   3.067063   -0.84145 H        1 UNL1     0.0234
     110 H         -0.174098   2.329033   -1.900046 H        1 UNL1     0.0234
     111 H         0.055763   4.042437   -1.884119 H        1 UNL1     0.0234
     112 H         -3.591052   -1.530854   1.43982 H        1 UNL1     0.0342
     113 H         -3.243048   0.106905   2.099272 H        1 UNL1     0.0342
     114 H         -4.428882   -0.102526   0.807797 H        1 UNL1     0.0342
     115 H         -2.678777   1.932859   3.302148 H        1 UNL1     0.0234
     116 H         -1.176534   1.907212   4.231338 H        1 UNL1     0.0234
     117 H         -1.653917   3.288077   3.2219 H        1 UNL1     0.0234
     118 H         0.908593   7.687833   -0.755852 H        1 UNL1     0.0309
     119 H         2.184102   7.799681   -2.008301 H        1 UNL1     0.0309
     120 H         1.433254   6.274203   -1.594417 H        1 UNL1     0.0309
     121 H         -0.326117   6.254447   2.852919 H        1 UNL1     0.0524
     122 H         -2.060954   6.067627   2.56605 H        1 UNL1     0.0524
     123 H         -1.319106   5.315963   4.000764 H        1 UNL1     0.0524
@<TRIPOS>BOND
     1     1     2    1
     2     1    42    1
     3     2     3    2
     4     3     4    1
     5     4     5    2
     6     5     7    1
     7     6    75    1
     8     6    76    1
     9     6    77    1
    10     7     9   am
    11     9    10    1
    12    10    11    2
    13    10    43    1
    14    11    14    1
    15    11    15    1
    16    12    13   ar
    17    12    27   ar
    18    12    43    1
    19    13    14    1
    20    13    30   ar
    21    14    17    2
    22    15    16    1
    23    16    17    1
    24    16    18    1
    25    16    22    1
    26    18    19    1
    27    19    20    1
    28    20    21    1
    29    21    22    1
    30    23    24    1
    31    23    88    1
    32    23    89    1
    33    24    25    1
    34    24    26    1
    35    24    90    1
    36    25    91    1
    37    25    92    1
    38    25    93    1
    39    26    94    1
    40    26    95    1
    41    26    96    1
    42    27    28   ar
    43    28    29   ar
    44    29    30   ar
    45    29    31    1
    46    30    33    1
    47    31    32    1
    48    32    33    1
    49    32    35    1
    50    34    97    1
    51    34    98    1
    52    34    99    1
    53    35    61    1
    54    36    37    1
    55    36    60    1
    56    37    38    1
    57    38    39    1
    58    39    40    1
    59    40    41    1
    60    41    42    1
    61    45   100    1
    62    47   101    1
    63    47   102    1
    64    47   103    1
    65    48   104    1
    66    49   105    1
    67    49   106    1
    68    49   107    1
    69    50   108    1
    70    51    59    1
    71    52   109    1
    72    52   110    1
    73    52   111    1
    74    53    54    1
    75    54    55    2
    76    54    56    1
    77    56   112    1
    78    56   113    1
    79    56   114    1
    80    57   115    1
    81    57   116    1
    82    57   117    1
    83    58   118    1
    84    58   119    1
    85    58   120    1
    86    59   121    1
    87    59   122    1
    88    59   123    1
    89    60    61    2
    90     1    47    1
    91     1    62    1
    92     2    63    1
    93     3    64    1
    94     4    65    1
    95     5     6    1
    96     7     8    2
    97     9    78    1
    98    15    79    1
    99    18    80    1
   100    18    81    1
   101    19    82    1
   102    19    83    1
   103    20    23    1
   104    21    84    1
   105    21    85    1
   106    22    86    1
   107    22    87    1
   108    27    45    1
   109    28    34    1
   110    32    58    1
   111    33    46    2
   112    36    51    1
   113    36    66    1
   114    37    52    1
   115    37    67    1
   116    38    53    1
   117    38    68    1
   118    42    48    1
   119    42    72    1
   120    43    44    2
   121    60    73    1
   122    61    74    1
   123    39    69    1
   124    39    57    1
   125    40    70    1
   126    40    50    1
   127    41    71    1
   128    41    49    1
