@<TRIPOS>MOLECULE
*****
 123 128 0 0 0
SMALL
GASTEIGER

@<TRIPOS>ATOM
     1 C         5.164737   1.758765   0.481153 C.3        1 UNL1     0.0009
     2 C         6.601143   2.559681   -0.374597 C.2        1 UNL1     -0.0787
     3 C         7.883653   2.457638   -1.038526 C.2        1 UNL1     -0.0649
     4 C         8.760244   3.687662   -1.80337 C.2        1 UNL1     -0.0542
     5 C         9.780658   3.973931   -2.743521 C.2        1 UNL1     0.0115
     6 C         10.910259   3.342856   -3.603212 C.3        1 UNL1     -0.0348
     7 C         9.874735   5.452362   -3.361891 C.2        1 UNL1     0.2441
     8 O         10.697363   6.277994   -2.99022 O.2        1 UNL1     -0.2702
     9 N         9.125183   5.649004   -4.534774 N.am        1 UNL1     -0.2772
     10 C         7.841773   6.036694   -4.225132 C.2        1 UNL1     0.1049
     11 C         6.996896   5.066673   -3.926027 C.2        1 UNL1     0.0801
     12 C         6.540407   7.653138   -2.82839 C.ar        1 UNL1     0.0753
     13 C         5.78232   6.527976   -2.372406 C.ar        1 UNL1     0.0305
     14 C         5.901279   5.217253   -3.007155 C.2        1 UNL1     0.0924
     15 N         7.121193   3.736601   -4.074303 N.pl3        1 UNL1     -0.3170
     16 C         5.851791   3.138491   -3.756283 C.3        1 UNL1     0.1275
     17 N         5.213513   4.100845   -2.784583 N.2        1 UNL1     -0.2557
     18 C         4.999857   3.186372   -5.021043 C.3        1 UNL1     0.0016
     19 C         5.756415   2.494091   -6.143522 C.3        1 UNL1     0.0026
     20 N         6.027866   1.119463   -5.746358 N.3        1 UNL1     -0.3018
     21 C         6.790446   0.969961   -4.505193 C.3        1 UNL1     0.0026
     22 C         6.010023   1.66858   -3.390399 C.3        1 UNL1     0.0016
     23 C         6.474193   0.29153   -6.849064 C.3        1 UNL1     0.0012
     24 C         5.319805   0.032788   -7.82998 C.3        1 UNL1     -0.0339
     25 C         5.395255   0.969509   -9.04691 C.3        1 UNL1     -0.0615
     26 C         5.309152   -1.42726   -8.248223 C.3        1 UNL1     -0.0615
     27 C         6.333846   8.9249   -2.29917 C.ar        1 UNL1     0.1347
     28 C         5.373728   9.201052   -1.34211 C.ar        1 UNL1     0.0342
     29 C         4.673135   8.069528   -0.873084 C.ar        1 UNL1     0.1435
     30 C         4.894468   6.783726   -1.368003 C.ar        1 UNL1     0.0774
     31 O         3.63135   8.18875   -0.021335 O.3        1 UNL1     -0.4436
     32 C         2.911223   6.953977   -0.154101 C.3        1 UNL1     0.3143
     33 C         3.926092   5.957803   -0.677448 C.2        1 UNL1     0.2504
     34 C         4.924952   10.57014   -0.912809 C.3        1 UNL1     -0.0327
     35 O         2.550079   6.527484   1.165342 O.2        1 UNL1     -0.4528
     36 C         -0.6904   4.588353   0.781734 C.3        1 UNL1     0.0854
     37 C         -0.99354   3.320213   -0.10565 C.3        1 UNL1     0.0236
     38 C         -1.59323   2.064862   0.691979 C.3        1 UNL1     0.1131
     39 C         -0.867856   1.545298   1.998177 C.3        1 UNL1     0.0200
     40 C         0.793473   1.40204   2.041782 C.3        1 UNL1     0.0661
     41 C         1.75464   0.624931   0.879943 C.3        1 UNL1     0.0091
     42 C         3.462236   0.98493   0.314329 C.3        1 UNL1     0.0661
     43 C         7.491554   7.437513   -3.946909 C.2        1 UNL1     0.2131
     44 O         7.89094   8.330231   -4.672361 O.2        1 UNL1     -0.2851
     45 O         7.145256   9.957226   -2.765383 O.3        1 UNL1     -0.5056
     46 O         3.943385   4.755383   -0.536948 O.2        1 UNL1     -0.2836
     47 C         5.560495   1.341376   1.923077 C.3        1 UNL1     -0.0566
     48 O         3.912383   -0.424942   0.407846 O.3        1 UNL1     -0.3909
     49 C         0.921677   0.38136   -0.358742 C.3        1 UNL1     -0.0577
     50 O         1.391948   2.623738   2.425196 O.3        1 UNL1     -0.3910
     51 O         -0.815335   4.409773   2.174549 O.3        1 UNL1     -0.3753
     52 C         0.051985   3.151667   -1.256049 C.3        1 UNL1     -0.0564
     53 O         -2.19393   1.017941   -0.199896 O.3        1 UNL1     -0.4608
     54 C         -2.427076   -0.2863   0.150147 C.2        1 UNL1     0.3042
     55 O         -1.855459   -1.288153   -0.278084 O.2        1 UNL1     -0.2512
     56 C         -3.469223   -0.444635   1.220462 C.3        1 UNL1     0.0332
     57 C         -1.590629   2.22361   3.253433 C.3        1 UNL1     -0.0567
     58 C         1.836574   7.189043   -1.241024 C.3        1 UNL1     0.0210
     59 C         -1.130473   5.59435   2.904845 C.3        1 UNL1     0.0372
     60 C         0.638038   5.217111   0.547049 C.2        1 UNL1     -0.0208
     61 C         1.5498   5.660421   1.4136 C.2        1 UNL1     0.0882
     62 H         4.687604   2.743052   0.560107 H        1 UNL1     0.0365
     63 H         6.333588   3.613984   -0.278011 H        1 UNL1     0.0576
     64 H         8.342602   1.489571   -1.25141 H        1 UNL1     0.0615
     65 H         8.271831   4.605259   -1.464327 H        1 UNL1     0.0622
     66 H         -1.435683   5.331478   0.464928 H        1 UNL1     0.0645
     67 H         -1.858982   3.623616   -0.720075 H        1 UNL1     0.0362
     68 H         -2.541076   2.503457   1.039461 H        1 UNL1     0.0741
     69 H         -1.198349   0.535424   2.201494 H        1 UNL1     0.0359
     70 H         0.905346   0.748983   2.928383 H        1 UNL1     0.0600
     71 H         1.799086   -0.392699   1.315156 H        1 UNL1     0.0348
     72 H         3.35504   1.480912   1.289945 H        1 UNL1     0.0602
     73 H         0.756492   5.406114   -0.490976 H        1 UNL1     0.0628
     74 H         1.531685   5.45839   2.48509 H        1 UNL1     0.1022
     75 H         10.937319   2.235314   -3.463026 H        1 UNL1     0.0279
     76 H         10.810762   3.440079   -4.681969 H        1 UNL1     0.0279
     77 H         11.915535   3.629315   -3.261066 H        1 UNL1     0.0279
     78 H         9.064593   4.77477   -5.052578 H        1 UNL1     0.1553
     79 H         7.78743   3.304412   -4.687715 H        1 UNL1     0.1484
     80 H         4.039   2.695899   -4.823667 H        1 UNL1     0.0317
     81 H         4.772248   4.220635   -5.300589 H        1 UNL1     0.0317
     82 H         6.686647   3.02446   -6.395097 H        1 UNL1     0.0428
     83 H         5.131876   2.541293   -7.036143 H        1 UNL1     0.0428
     84 H         6.911745   -0.070316   -4.187511 H        1 UNL1     0.0428
     85 H         7.820188   1.338347   -4.611211 H        1 UNL1     0.0428
     86 H         6.526047   1.426171   -2.479935 H        1 UNL1     0.0317
     87 H         5.03104   1.190825   -3.262185 H        1 UNL1     0.0317
     88 H         7.270026   0.829976   -7.380121 H        1 UNL1     0.0429
     89 H         6.907622   -0.650868   -6.490177 H        1 UNL1     0.0429
     90 H         4.366529   0.204096   -7.316042 H        1 UNL1     0.0308
     91 H         6.350789   0.86613   -9.569757 H        1 UNL1     0.0233
     92 H         4.580422   0.762703   -9.744684 H        1 UNL1     0.0233
     93 H         5.298062   2.025634   -8.767647 H        1 UNL1     0.0233
     94 H         4.617866   -1.575448   -9.084883 H        1 UNL1     0.0233
     95 H         6.307267   -1.7287   -8.578164 H        1 UNL1     0.0233
     96 H         4.99876   -2.076085   -7.424421 H        1 UNL1     0.0233
     97 H         4.124823   10.525489   -0.179986 H        1 UNL1     0.0280
     98 H         5.734259   11.141488   -0.439692 H        1 UNL1     0.0280
     99 H         4.560083   11.130556   -1.789107 H        1 UNL1     0.0280
     100 H         6.677608   10.705189   -3.093222 H        1 UNL1     0.2922
     101 H         4.694646   0.922274   2.435243 H        1 UNL1     0.0236
     102 H         6.021001   2.148506   2.491812 H        1 UNL1     0.0236
     103 H         6.308513   0.531051   1.929075 H        1 UNL1     0.0236
     104 H         4.326021   -0.54493   1.285044 H        1 UNL1     0.2098
     105 H         0.708417   1.275273   -0.939474 H        1 UNL1     0.0234
     106 H         1.292481   -0.411511   -1.008193 H        1 UNL1     0.0234
     107 H         0.0   -0.0   0.0 H        1 UNL1     0.0234
     108 H         1.208194   3.271408   1.717718 H        1 UNL1     0.2098
     109 H         1.078098   3.054862   -0.874693 H        1 UNL1     0.0234
     110 H         -0.17231   2.311277   -1.921767 H        1 UNL1     0.0234
     111 H         0.063865   4.023896   -1.923148 H        1 UNL1     0.0234
     112 H         -3.591503   -1.50368   1.467071 H        1 UNL1     0.0342
     113 H         -3.235186   0.139051   2.109496 H        1 UNL1     0.0342
     114 H         -4.42634   -0.078417   0.824261 H        1 UNL1     0.0342
     115 H         -2.659991   1.974395   3.292746 H        1 UNL1     0.0234
     116 H         -1.154573   1.952146   4.21687 H        1 UNL1     0.0234
     117 H         -1.630477   3.32499   3.195859 H        1 UNL1     0.0234
     118 H         0.933999   7.676804   -0.833037 H        1 UNL1     0.0309
     119 H         2.205467   7.771896   -2.090966 H        1 UNL1     0.0309
     120 H         1.450519   6.253249   -1.659781 H        1 UNL1     0.0309
     121 H         -0.29316   6.282757   2.793677 H        1 UNL1     0.0524
     122 H         -2.029673   6.099586   2.5147 H        1 UNL1     0.0524
     123 H         -1.285503   5.359025   3.953979 H        1 UNL1     0.0524
@<TRIPOS>BOND
     1     1     2    1
     2     1    42    1
     3     2     3    2
     4     3     4    1
     5     4     5    2
     6     5     7    1
     7     6    75    1
     8     6    76    1
     9     6    77    1
    10     7     9   am
    11     9    10    1
    12    10    11    2
    13    10    43    1
    14    11    14    1
    15    11    15    1
    16    12    13   ar
    17    12    27   ar
    18    12    43    1
    19    13    14    1
    20    13    30   ar
    21    14    17    2
    22    15    16    1
    23    16    17    1
    24    16    18    1
    25    16    22    1
    26    18    19    1
    27    19    20    1
    28    20    21    1
    29    21    22    1
    30    23    24    1
    31    23    88    1
    32    23    89    1
    33    24    25    1
    34    24    26    1
    35    24    90    1
    36    25    91    1
    37    25    92    1
    38    25    93    1
    39    26    94    1
    40    26    95    1
    41    26    96    1
    42    27    28   ar
    43    28    29   ar
    44    29    30   ar
    45    29    31    1
    46    30    33    1
    47    31    32    1
    48    32    33    1
    49    32    35    1
    50    34    97    1
    51    34    98    1
    52    34    99    1
    53    35    61    1
    54    36    37    1
    55    36    60    1
    56    37    38    1
    57    38    39    1
    58    39    40    1
    59    40    41    1
    60    41    42    1
    61    45   100    1
    62    47   101    1
    63    47   102    1
    64    47   103    1
    65    48   104    1
    66    49   105    1
    67    49   106    1
    68    49   107    1
    69    50   108    1
    70    51    59    1
    71    52   109    1
    72    52   110    1
    73    52   111    1
    74    53    54    1
    75    54    55    2
    76    54    56    1
    77    56   112    1
    78    56   113    1
    79    56   114    1
    80    57   115    1
    81    57   116    1
    82    57   117    1
    83    58   118    1
    84    58   119    1
    85    58   120    1
    86    59   121    1
    87    59   122    1
    88    59   123    1
    89    60    61    2
    90     1    47    1
    91     1    62    1
    92     2    63    1
    93     3    64    1
    94     4    65    1
    95     5     6    1
    96     7     8    2
    97     9    78    1
    98    15    79    1
    99    18    80    1
   100    18    81    1
   101    19    82    1
   102    19    83    1
   103    20    23    1
   104    21    84    1
   105    21    85    1
   106    22    86    1
   107    22    87    1
   108    27    45    1
   109    28    34    1
   110    32    58    1
   111    33    46    2
   112    36    51    1
   113    36    66    1
   114    37    52    1
   115    37    67    1
   116    38    53    1
   117    38    68    1
   118    42    48    1
   119    42    72    1
   120    43    44    2
   121    60    73    1
   122    61    74    1
   123    39    69    1
   124    39    57    1
   125    40    70    1
   126    40    50    1
   127    41    71    1
   128    41    49    1
