@<TRIPOS>MOLECULE
*****
 123 128 0 0 0
SMALL
GASTEIGER

@<TRIPOS>ATOM
     1 C         3.230433   -0.139585   -2.855153 C.3        1 UNL1     0.0009
     2 C         3.707002   -1.536314   -3.977235 C.2        1 UNL1     -0.0787
     3 C         4.611685   -2.609274   -4.332695 C.2        1 UNL1     -0.0649
     4 C         4.429458   -3.760064   -5.561041 C.2        1 UNL1     -0.0542
     5 C         4.840969   -5.031589   -6.031106 C.2        1 UNL1     0.0115
     6 C         5.868818   -6.177115   -5.819872 C.3        1 UNL1     -0.0348
     7 C         3.937948   -5.785621   -7.123341 C.2        1 UNL1     0.2441
     8 O         4.225087   -5.824557   -8.311853 O.2        1 UNL1     -0.2702
     9 N         2.938241   -6.616792   -6.588653 N.am        1 UNL1     -0.2772
     10 C         1.784571   -5.899862   -6.368701 C.2        1 UNL1     0.1049
     11 C         1.729694   -5.217611   -5.239212 C.2        1 UNL1     0.0801
     12 C         0.209252   -4.29275   -7.460896 C.ar        1 UNL1     0.0753
     13 C         0.348979   -3.481562   -6.289974 C.ar        1 UNL1     0.0305
     14 C         1.010602   -3.98184   -5.087049 C.2        1 UNL1     0.0924
     15 N         2.529361   -5.267687   -4.160068 N.pl3        1 UNL1     -0.3170
     16 C         1.936413   -4.449863   -3.135455 C.3        1 UNL1     0.1275
     17 N         1.142124   -3.413242   -3.891924 N.2        1 UNL1     -0.2557
     18 C         0.914981   -5.313824   -2.402005 C.3        1 UNL1     0.0016
     19 C         1.614827   -6.560132   -1.883815 C.3        1 UNL1     0.0026
     20 N         2.693799   -6.154747   -0.993583 N.3        1 UNL1     -0.3018
     21 C         3.694918   -5.269841   -1.592808 C.3        1 UNL1     0.0026
     22 C         2.970702   -4.022555   -2.1024 C.3        1 UNL1     0.0016
     23 C         3.228231   -7.255866   -0.217334 C.3        1 UNL1     0.0012
     24 C         2.701137   -8.597068   -0.751284 C.3        1 UNL1     -0.0339
     25 C         3.59626   -9.146106   -1.874391 C.3        1 UNL1     -0.0615
     26 C         2.559967   -9.591781   0.38775 C.3        1 UNL1     -0.0615
     27 C         -0.526825   -3.854241   -8.559086 C.ar        1 UNL1     0.1347
     28 C         -1.19866   -2.645161   -8.58759 C.ar        1 UNL1     0.0342
     29 C         -1.006555   -1.842279   -7.443195 C.ar        1 UNL1     0.1435
     30 C         -0.2423   -2.253041   -6.350305 C.ar        1 UNL1     0.0774
     31 O         -1.682568   -0.685176   -7.272532 O.3        1 UNL1     -0.4436
     32 C         -1.600835   -0.421814   -5.863691 C.3        1 UNL1     0.3143
     33 C         -0.376012   -1.177741   -5.389776 C.2        1 UNL1     0.2504
     34 C         -2.205945   -2.220312   -9.619569 C.3        1 UNL1     -0.0327
     35 O         -1.316257   0.973796   -5.707034 O.2        1 UNL1     -0.4528
     36 C         -2.903343   1.996241   -2.414034 C.3        1 UNL1     0.0854
     37 C         -2.663659   1.41216   -0.968723 C.3        1 UNL1     0.0236
     38 C         -2.239718   2.494626   0.135942 C.3        1 UNL1     0.1131
     39 C         -1.046088   3.490202   -0.15791 C.3        1 UNL1     0.0200
     40 C         0.360567   2.937727   -0.863976 C.3        1 UNL1     0.0661
     41 C         1.259655   1.588675   -0.364665 C.3        1 UNL1     0.0091
     42 C         2.269336   0.405309   -1.33708 C.3        1 UNL1     0.0661
     43 C         0.799517   -5.654013   -7.432458 C.2        1 UNL1     0.2131
     44 O         0.436564   -6.560339   -8.160178 O.2        1 UNL1     -0.2851
     45 O         -0.575338   -4.685128   -9.676543 O.3        1 UNL1     -0.5056
     46 O         0.341048   -0.93418   -4.445129 O.2        1 UNL1     -0.2836
     47 C         4.140536   1.091871   -3.110511 C.3        1 UNL1     -0.0566
     48 O         3.432622   0.467883   -0.419493 O.3        1 UNL1     -0.3909
     49 C         0.421718   0.770963   0.592781 C.3        1 UNL1     -0.0577
     50 O         0.253137   2.952095   -2.273222 O.3        1 UNL1     -0.3910
     51 O         -2.550775   3.348725   -2.598194 O.3        1 UNL1     -0.3753
     52 C         -2.032841   -0.01779   -1.016297 C.3        1 UNL1     -0.0564
     53 O         -2.359751   1.993078   1.545327 O.3        1 UNL1     -0.4608
     54 C         -2.736159   2.744869   2.627481 C.2        1 UNL1     0.3042
     55 O         -3.603596   2.476719   3.457835 O.2        1 UNL1     -0.2512
     56 C         -1.926823   3.998702   2.799506 C.3        1 UNL1     0.0332
     57 C         -1.677824   4.848439   -0.718514 C.3        1 UNL1     -0.0567
     58 C         -2.857669   -1.058458   -5.226054 C.3        1 UNL1     0.0210
     59 C         -3.627689   4.273726   -2.455032 C.3        1 UNL1     0.0372
     60 C         -2.25957   1.230914   -3.516299 C.2        1 UNL1     -0.0208
     61 C         -1.564287   1.655516   -4.572253 C.2        1 UNL1     0.0882
     62 H         2.325768   0.00974   -3.456813 H        1 UNL1     0.0365
     63 H         2.933934   -1.454237   -4.74411 H        1 UNL1     0.0576
     64 H         5.459055   -2.87752   -3.697781 H        1 UNL1     0.0615
     65 H         3.618694   -3.359262   -6.175453 H        1 UNL1     0.0622
     66 H         -3.986609   1.901325   -2.57395 H        1 UNL1     0.0645
     67 H         -3.673184   1.129541   -0.62297 H        1 UNL1     0.0362
     68 H         -3.146262   3.118877   0.139179 H        1 UNL1     0.0741
     69 H         -0.695584   3.8998   0.780058 H        1 UNL1     0.0359
     70 H         1.036187   3.782472   -0.629449 H        1 UNL1     0.0600
     71 H         1.97015   2.076647   0.331062 H        1 UNL1     0.0348
     72 H         2.155766   1.297963   -1.969208 H        1 UNL1     0.0602
     73 H         -2.533306   0.208112   -3.4376 H        1 UNL1     0.0628
     74 H         -1.195362   2.673921   -4.698678 H        1 UNL1     0.1022
     75 H         5.348179   -7.162251   -5.745869 H        1 UNL1     0.0279
     76 H         6.578336   -6.347144   -6.626559 H        1 UNL1     0.0279
     77 H         6.370783   -6.123247   -4.842718 H        1 UNL1     0.0279
     78 H         3.244793   -6.986732   -5.691297 H        1 UNL1     0.1553
     79 H         3.141989   -6.035779   -3.955975 H        1 UNL1     0.1484
     80 H         0.476154   -4.731136   -1.58306 H        1 UNL1     0.0317
     81 H         0.089533   -5.592452   -3.065822 H        1 UNL1     0.0317
     82 H         1.993525   -7.185765   -2.705449 H        1 UNL1     0.0428
     83 H         0.868052   -7.162715   -1.365866 H        1 UNL1     0.0428
     84 H         4.449138   -4.91647   -0.882813 H        1 UNL1     0.0428
     85 H         4.279233   -5.780982   -2.370386 H        1 UNL1     0.0428
     86 H         3.744446   -3.344347   -2.411175 H        1 UNL1     0.0317
     87 H         2.492955   -3.49852   -1.265595 H        1 UNL1     0.0317
     88 H         4.321479   -7.245262   -0.317288 H        1 UNL1     0.0429
     89 H         3.001723   -7.13811   0.850187 H        1 UNL1     0.0429
     90 H         1.689944   -8.452577   -1.149812 H        1 UNL1     0.0308
     91 H         3.000744   -9.490119   -2.725343 H        1 UNL1     0.0233
     92 H         4.300729   -8.383477   -2.214581 H        1 UNL1     0.0233
     93 H         4.203327   -9.998312   -1.545682 H        1 UNL1     0.0233
     94 H         3.326313   -10.370213   0.30656 H        1 UNL1     0.0233
     95 H         2.695841   -9.083648   1.346552 H        1 UNL1     0.0233
     96 H         1.57742   -10.071875   0.378806 H        1 UNL1     0.0233
     97 H         -2.137793   -1.159826   -9.843074 H        1 UNL1     0.0280
     98 H         -2.062034   -2.738959   -10.576414 H        1 UNL1     0.0280
     99 H         -3.223217   -2.431116   -9.251039 H        1 UNL1     0.0280
     100 H         -0.000615   -4.432423   -10.377582 H        1 UNL1     0.2922
     101 H         4.112378   1.357058   -4.167175 H        1 UNL1     0.0236
     102 H         5.159515   0.953815   -2.750502 H        1 UNL1     0.0236
     103 H         3.776795   1.991437   -2.586424 H        1 UNL1     0.0236
     104 H         3.989734   1.220011   -0.700388 H        1 UNL1     0.2098
     105 H         0.985503   0.302679   1.395693 H        1 UNL1     0.0234
     106 H         -0.447816   1.290662   0.994965 H        1 UNL1     0.0234
     107 H         -0.0   0.0   0.0 H        1 UNL1     0.0234
     108 H         -0.497812   2.375518   -2.512809 H        1 UNL1     0.2098
     109 H         -2.19273   -0.574264   -0.082229 H        1 UNL1     0.0234
     110 H         -2.385051   -0.615601   -1.863831 H        1 UNL1     0.0234
     111 H         -0.944234   0.024482   -1.154476 H        1 UNL1     0.0234
     112 H         -2.206769   4.497292   3.73245 H        1 UNL1     0.0342
     113 H         -0.856131   3.802677   2.767293 H        1 UNL1     0.0342
     114 H         -2.165972   4.677985   1.969719 H        1 UNL1     0.0342
     115 H         -1.367346   5.71898   -0.124419 H        1 UNL1     0.0234
     116 H         -1.428965   5.056687   -1.760987 H        1 UNL1     0.0234
     117 H         -2.775255   4.899323   -0.613648 H        1 UNL1     0.0234
     118 H         -2.901077   -2.14873   -5.394669 H        1 UNL1     0.0309
     119 H         -2.943474   -0.858258   -4.15332 H        1 UNL1     0.0309
     120 H         -3.787613   -0.695851   -5.677528 H        1 UNL1     0.0309
     121 H         -3.83663   4.374244   -1.390327 H        1 UNL1     0.0524
     122 H         -3.372707   5.275401   -2.839309 H        1 UNL1     0.0524
     123 H         -4.507979   3.909407   -2.977004 H        1 UNL1     0.0524
@<TRIPOS>BOND
     1     1     2    1
     2     1    42    1
     3     2     3    2
     4     3     4    1
     5     4     5    2
     6     5     7    1
     7     6    75    1
     8     6    76    1
     9     6    77    1
    10     7     9   am
    11     9    10    1
    12    10    11    2
    13    10    43    1
    14    11    14    1
    15    11    15    1
    16    12    13   ar
    17    12    27   ar
    18    12    43    1
    19    13    14    1
    20    13    30   ar
    21    14    17    2
    22    15    16    1
    23    16    17    1
    24    16    18    1
    25    16    22    1
    26    18    19    1
    27    19    20    1
    28    20    21    1
    29    21    22    1
    30    23    24    1
    31    23    88    1
    32    23    89    1
    33    24    25    1
    34    24    26    1
    35    24    90    1
    36    25    91    1
    37    25    92    1
    38    25    93    1
    39    26    94    1
    40    26    95    1
    41    26    96    1
    42    27    28   ar
    43    28    29   ar
    44    29    30   ar
    45    29    31    1
    46    30    33    1
    47    31    32    1
    48    32    33    1
    49    32    35    1
    50    34    97    1
    51    34    98    1
    52    34    99    1
    53    35    61    1
    54    36    37    1
    55    36    60    1
    56    37    38    1
    57    38    39    1
    58    39    40    1
    59    40    41    1
    60    41    42    1
    61    45   100    1
    62    47   101    1
    63    47   102    1
    64    47   103    1
    65    48   104    1
    66    49   105    1
    67    49   106    1
    68    49   107    1
    69    50   108    1
    70    51    59    1
    71    52   109    1
    72    52   110    1
    73    52   111    1
    74    53    54    1
    75    54    55    2
    76    54    56    1
    77    56   112    1
    78    56   113    1
    79    56   114    1
    80    57   115    1
    81    57   116    1
    82    57   117    1
    83    58   118    1
    84    58   119    1
    85    58   120    1
    86    59   121    1
    87    59   122    1
    88    59   123    1
    89    60    61    2
    90     1    47    1
    91     1    62    1
    92     2    63    1
    93     3    64    1
    94     4    65    1
    95     5     6    1
    96     7     8    2
    97     9    78    1
    98    15    79    1
    99    18    80    1
   100    18    81    1
   101    19    82    1
   102    19    83    1
   103    20    23    1
   104    21    84    1
   105    21    85    1
   106    22    86    1
   107    22    87    1
   108    27    45    1
   109    28    34    1
   110    32    58    1
   111    33    46    2
   112    36    51    1
   113    36    66    1
   114    37    52    1
   115    37    67    1
   116    38    53    1
   117    38    68    1
   118    42    48    1
   119    42    72    1
   120    43    44    2
   121    60    73    1
   122    61    74    1
   123    39    69    1
   124    39    57    1
   125    40    70    1
   126    40    50    1
   127    41    71    1
   128    41    49    1
