@<TRIPOS>MOLECULE
*****
 123 128 0 0 0
SMALL
GASTEIGER

@<TRIPOS>ATOM
     1 C         5.167569   1.746566   0.494989 C.3        1 UNL1     0.0009
     2 C         6.605098   2.552361   -0.354268 C.2        1 UNL1     -0.0787
     3 C         7.887344   2.453866   -1.019244 C.2        1 UNL1     -0.0649
     4 C         8.765748   3.688872   -1.773912 C.2        1 UNL1     -0.0542
     5 C         9.786464   3.981399   -2.711806 C.2        1 UNL1     0.0115
     6 C         10.914939   3.35577   -3.576938 C.3        1 UNL1     -0.0348
     7 C         9.882768   5.464804   -3.317794 C.2        1 UNL1     0.2441
     8 O         10.70675   6.286004   -2.939363 O.2        1 UNL1     -0.2702
     9 N         9.133344   5.672435   -4.488864 N.am        1 UNL1     -0.2772
     10 C         7.850593   6.059533   -4.175772 C.2        1 UNL1     0.1049
     11 C         7.004239   5.08837   -3.884655 C.2        1 UNL1     0.0801
     12 C         6.551985   7.66627   -2.765329 C.ar        1 UNL1     0.0753
     13 C         5.792201   6.538521   -2.318652 C.ar        1 UNL1     0.0305
     14 C         5.909003   5.232972   -2.964371 C.2        1 UNL1     0.0924
     15 N         7.126423   3.759392   -4.04408 N.pl3        1 UNL1     -0.3170
     16 C         5.856132   3.160635   -3.730864 C.3        1 UNL1     0.1275
     17 N         5.219518   4.115822   -2.751036 N.2        1 UNL1     -0.2557
     18 C         5.004079   3.220438   -4.995036 C.3        1 UNL1     0.0016
     19 C         5.759374   2.536391   -6.123397 C.3        1 UNL1     0.0026
     20 N         6.028727   1.158062   -5.737799 N.3        1 UNL1     -0.3018
     21 C         6.791263   0.996979   -4.498057 C.3        1 UNL1     0.0026
     22 C         6.012111   1.687465   -3.377323 C.3        1 UNL1     0.0016
     23 C         6.473582   0.338688   -6.847472 C.3        1 UNL1     0.0012
     24 C         5.318636   0.089979   -7.830325 C.3        1 UNL1     -0.0339
     25 C         5.345304   1.093506   -8.99492 C.3        1 UNL1     -0.0615
     26 C         5.357758   -1.34459   -8.327579 C.3        1 UNL1     -0.0615
     27 C         6.347504   8.933879   -2.225448 C.ar        1 UNL1     0.1347
     28 C         5.387969   9.203517   -1.265949 C.ar        1 UNL1     0.0342
     29 C         4.685672   8.069208   -0.806293 C.ar        1 UNL1     0.1435
     30 C         4.904908   6.787248   -1.311994 C.ar        1 UNL1     0.0774
     31 O         3.644207   8.182931   0.046599 O.3        1 UNL1     -0.4436
     32 C         2.922121   6.950445   -0.096376 C.3        1 UNL1     0.3143
     33 C         3.935342   5.957095   -0.628214 C.2        1 UNL1     0.2504
     34 C         4.941412   10.569666   -0.825127 C.3        1 UNL1     -0.0327
     35 O         2.560512   6.513489   1.219511 O.2        1 UNL1     -0.4528
     36 C         -0.683069   4.582726   0.82023 C.3        1 UNL1     0.0854
     37 C         -0.988339   3.322537   -0.077687 C.3        1 UNL1     0.0236
     38 C         -1.589877   2.061496   0.709506 C.3        1 UNL1     0.1131
     39 C         -0.865117   1.529878   2.011188 C.3        1 UNL1     0.0200
     40 C         0.795992   1.383653   2.053313 C.3        1 UNL1     0.0661
     41 C         1.755756   0.614788   0.884848 C.3        1 UNL1     0.0091
     42 C         3.463828   0.976828   0.321981 C.3        1 UNL1     0.0661
     43 C         7.502618   7.458522   -3.885774 C.2        1 UNL1     0.2131
     44 O         7.903294   8.356654   -4.603795 O.2        1 UNL1     -0.2851
     45 O         7.160463   9.968797   -2.68314 O.3        1 UNL1     -0.5056
     46 O         3.950769   4.753515   -0.497787 O.2        1 UNL1     -0.2836
     47 C         5.562894   1.316501   1.933302 C.3        1 UNL1     -0.0566
     48 O         3.911774   -0.434482   0.403616 O.3        1 UNL1     -0.3909
     49 C         0.922219   0.382902   -0.355692 C.3        1 UNL1     -0.0577
     50 O         1.396445   2.601157   2.446839 O.3        1 UNL1     -0.3910
     51 O         -0.808069   4.392691   2.211522 O.3        1 UNL1     -0.3753
     52 C         0.056742   3.161985   -1.229632 C.3        1 UNL1     -0.0564
     53 O         -2.192359   1.023021   -0.190999 O.3        1 UNL1     -0.4608
     54 C         -2.415395   -0.286978   0.143794 C.2        1 UNL1     0.3042
     55 O         -1.843358   -1.280065   -0.303856 O.2        1 UNL1     -0.2512
     56 C         -3.445489   -0.464989   1.22265 C.3        1 UNL1     0.0332
     57 C         -1.58663   2.198792   3.272199 C.3        1 UNL1     -0.0567
     58 C         1.847674   7.196288   -1.181113 C.3        1 UNL1     0.0210
     59 C         -1.152154   5.565252   2.948115 C.3        1 UNL1     0.0372
     60 C         0.646318   5.211341   0.590592 C.2        1 UNL1     -0.0208
     61 C         1.55891   5.64595   1.46067 C.2        1 UNL1     0.0882
     62 H         4.691995   2.730905   0.58226 H        1 UNL1     0.0365
     63 H         6.339215   3.606238   -0.248815 H        1 UNL1     0.0576
     64 H         8.344738   1.486896   -1.2403 H        1 UNL1     0.0615
     65 H         8.278829   4.604365   -1.427117 H        1 UNL1     0.0622
     66 H         -1.427232   5.329646   0.509781 H        1 UNL1     0.0645
     67 H         -1.853398   3.63243   -0.689405 H        1 UNL1     0.0362
     68 H         -2.536979   2.498654   1.060807 H        1 UNL1     0.0741
     69 H         -1.197166   0.518858   2.2061 H        1 UNL1     0.0359
     70 H         0.906976   0.723022   2.934398 H        1 UNL1     0.0600
     71 H         1.798671   -0.406518   1.31152 H        1 UNL1     0.0348
     72 H         3.357562   1.464794   1.301732 H        1 UNL1     0.0602
     73 H         0.764909   5.408841   -0.445833 H        1 UNL1     0.0628
     74 H         1.540644   5.434986   2.530435 H        1 UNL1     0.1022
     75 H         10.958881   2.250429   -3.424213 H        1 UNL1     0.0279
     76 H         10.80198   3.438915   -4.655547 H        1 UNL1     0.0279
     77 H         11.919944   3.659972   -3.249635 H        1 UNL1     0.0279
     78 H         9.071301   4.802662   -5.013957 H        1 UNL1     0.1553
     79 H         7.791885   3.331307   -4.6612 H        1 UNL1     0.1484
     80 H         4.042483   2.729839   -4.80161 H        1 UNL1     0.0317
     81 H         4.778052   4.25736   -5.265876 H        1 UNL1     0.0317
     82 H         6.690399   3.067385   -6.370681 H        1 UNL1     0.0428
     83 H         5.134772   2.592043   -7.015488 H        1 UNL1     0.0428
     84 H         6.910977   -0.04611   -4.189115 H        1 UNL1     0.0428
     85 H         7.821567   1.364622   -4.601161 H        1 UNL1     0.0428
     86 H         6.527896   1.436634   -2.469007 H        1 UNL1     0.0317
     87 H         5.032399   1.210191   -3.252949 H        1 UNL1     0.0317
     88 H         7.270177   0.880311   -7.374137 H        1 UNL1     0.0429
     89 H         6.905585   -0.60736   -6.496559 H        1 UNL1     0.0429
     90 H         4.365504   0.196924   -7.298992 H        1 UNL1     0.0308
     91 H         6.294525   1.048368   -9.537177 H        1 UNL1     0.0233
     92 H         4.525357   0.899936   -9.690496 H        1 UNL1     0.0233
     93 H         5.221172   2.129334   -8.656559 H        1 UNL1     0.0233
     94 H         4.66192   -1.473649   -9.163635 H        1 UNL1     0.0233
     95 H         6.362241   -1.589172   -8.684166 H        1 UNL1     0.0233
     96 H         5.082634   -2.04854   -7.53718 H        1 UNL1     0.0233
     97 H         4.147616   10.52   -0.085769 H        1 UNL1     0.0280
     98 H         5.754117   11.139248   -0.35572 H        1 UNL1     0.0280
     99 H         4.568476   11.134596   -1.695109 H        1 UNL1     0.0280
     100 H         6.693922   10.719426   -3.006434 H        1 UNL1     0.2922
     101 H         4.699607   0.88307   2.437811 H        1 UNL1     0.0236
     102 H         6.013659   2.121502   2.512758 H        1 UNL1     0.0236
     103 H         6.318819   0.513526   1.932424 H        1 UNL1     0.0236
     104 H         4.330741   -0.560885   1.277378 H        1 UNL1     0.2098
     105 H         0.710274   1.281979   -0.928886 H        1 UNL1     0.0234
     106 H         1.291676   -0.405086   -1.01182 H        1 UNL1     0.0234
     107 H         0.0   -0.0   0.0 H        1 UNL1     0.0234
     108 H         1.19857   3.259682   1.753328 H        1 UNL1     0.2098
     109 H         1.081307   3.04799   -0.848865 H        1 UNL1     0.0234
     110 H         -0.175633   2.335168   -1.909425 H        1 UNL1     0.0234
     111 H         0.078675   4.044971   -1.882166 H        1 UNL1     0.0234
     112 H         -3.571401   -1.528952   1.445081 H        1 UNL1     0.0342
     113 H         -3.197069   0.095576   2.122594 H        1 UNL1     0.0342
     114 H         -4.405019   -0.083579   0.84716 H        1 UNL1     0.0342
     115 H         -2.65093   1.93078   3.323413 H        1 UNL1     0.0234
     116 H         -1.135758   1.9378   4.231702 H        1 UNL1     0.0234
     117 H         -1.646619   3.299128   3.212165 H        1 UNL1     0.0234
     118 H         0.946554   7.683442   -0.769204 H        1 UNL1     0.0309
     119 H         2.217778   7.784356   -2.026927 H        1 UNL1     0.0309
     120 H         1.458978   6.264603   -1.606536 H        1 UNL1     0.0309
     121 H         -0.347552   6.287523   2.812846 H        1 UNL1     0.0524
     122 H         -2.081912   6.031577   2.581877 H        1 UNL1     0.0524
     123 H         -1.268555   5.326713   4.001511 H        1 UNL1     0.0524
@<TRIPOS>BOND
     1     1     2    1
     2     1    42    1
     3     2     3    2
     4     3     4    1
     5     4     5    2
     6     5     7    1
     7     6    75    1
     8     6    76    1
     9     6    77    1
    10     7     9   am
    11     9    10    1
    12    10    11    2
    13    10    43    1
    14    11    14    1
    15    11    15    1
    16    12    13   ar
    17    12    27   ar
    18    12    43    1
    19    13    14    1
    20    13    30   ar
    21    14    17    2
    22    15    16    1
    23    16    17    1
    24    16    18    1
    25    16    22    1
    26    18    19    1
    27    19    20    1
    28    20    21    1
    29    21    22    1
    30    23    24    1
    31    23    88    1
    32    23    89    1
    33    24    25    1
    34    24    26    1
    35    24    90    1
    36    25    91    1
    37    25    92    1
    38    25    93    1
    39    26    94    1
    40    26    95    1
    41    26    96    1
    42    27    28   ar
    43    28    29   ar
    44    29    30   ar
    45    29    31    1
    46    30    33    1
    47    31    32    1
    48    32    33    1
    49    32    35    1
    50    34    97    1
    51    34    98    1
    52    34    99    1
    53    35    61    1
    54    36    37    1
    55    36    60    1
    56    37    38    1
    57    38    39    1
    58    39    40    1
    59    40    41    1
    60    41    42    1
    61    45   100    1
    62    47   101    1
    63    47   102    1
    64    47   103    1
    65    48   104    1
    66    49   105    1
    67    49   106    1
    68    49   107    1
    69    50   108    1
    70    51    59    1
    71    52   109    1
    72    52   110    1
    73    52   111    1
    74    53    54    1
    75    54    55    2
    76    54    56    1
    77    56   112    1
    78    56   113    1
    79    56   114    1
    80    57   115    1
    81    57   116    1
    82    57   117    1
    83    58   118    1
    84    58   119    1
    85    58   120    1
    86    59   121    1
    87    59   122    1
    88    59   123    1
    89    60    61    2
    90     1    47    1
    91     1    62    1
    92     2    63    1
    93     3    64    1
    94     4    65    1
    95     5     6    1
    96     7     8    2
    97     9    78    1
    98    15    79    1
    99    18    80    1
   100    18    81    1
   101    19    82    1
   102    19    83    1
   103    20    23    1
   104    21    84    1
   105    21    85    1
   106    22    86    1
   107    22    87    1
   108    27    45    1
   109    28    34    1
   110    32    58    1
   111    33    46    2
   112    36    51    1
   113    36    66    1
   114    37    52    1
   115    37    67    1
   116    38    53    1
   117    38    68    1
   118    42    48    1
   119    42    72    1
   120    43    44    2
   121    60    73    1
   122    61    74    1
   123    39    69    1
   124    39    57    1
   125    40    70    1
   126    40    50    1
   127    41    71    1
   128    41    49    1
