@<TRIPOS>MOLECULE
*****
 123 128 0 0 0
SMALL
GASTEIGER

@<TRIPOS>ATOM
     1 C         5.169439   1.739529   0.499892 C.3        1 UNL1     0.0009
     2 C         6.60925   2.542412   -0.348259 C.2        1 UNL1     -0.0787
     3 C         7.892132   2.44139   -1.011626 C.2        1 UNL1     -0.0649
     4 C         8.773383   3.674435   -1.766182 C.2        1 UNL1     -0.0542
     5 C         9.795678   3.964638   -2.703077 C.2        1 UNL1     0.0115
     6 C         10.924198   3.336573   -3.566385 C.3        1 UNL1     -0.0348
     7 C         9.895044   5.447428   -3.310077 C.2        1 UNL1     0.2441
     8 O         10.719867   6.267617   -2.931286 O.2        1 UNL1     -0.2702
     9 N         9.147347   5.655346   -4.4822 N.am        1 UNL1     -0.2772
     10 C         7.864835   6.044704   -4.170936 C.2        1 UNL1     0.1049
     11 C         7.016604   5.075097   -3.880093 C.2        1 UNL1     0.0801
     12 C         6.567078   7.654559   -2.763269 C.ar        1 UNL1     0.0753
     13 C         5.804985   6.528349   -2.316643 C.ar        1 UNL1     0.0305
     14 C         5.920499   5.222127   -2.961229 C.2        1 UNL1     0.0924
     15 N         7.136884   3.745807   -4.038361 N.pl3        1 UNL1     -0.3170
     16 C         5.865277   3.149291   -3.726209 C.3        1 UNL1     0.1275
     17 N         5.228999   4.106227   -2.747869 N.2        1 UNL1     -0.2557
     18 C         5.014829   3.209473   -4.991444 C.3        1 UNL1     0.0016
     19 C         5.770392   2.523378   -6.118381 C.3        1 UNL1     0.0026
     20 N         6.037112   1.14492   -5.731414 N.3        1 UNL1     -0.3018
     21 C         6.797912   0.983581   -4.490639 C.3        1 UNL1     0.0026
     22 C         6.018511   1.676148   -3.371363 C.3        1 UNL1     0.0016
     23 C         6.481999   0.324001   -6.839931 C.3        1 UNL1     0.0012
     24 C         5.326714   0.072728   -7.821734 C.3        1 UNL1     -0.0339
     25 C         5.346874   1.079749   -8.983439 C.3        1 UNL1     -0.0615
     26 C         5.371797   -1.360191   -8.323223 C.3        1 UNL1     -0.0615
     27 C         6.363951   8.9229   -2.224596 C.ar        1 UNL1     0.1347
     28 C         5.403697   9.194781   -1.26645 C.ar        1 UNL1     0.0342
     29 C         4.699064   8.06193   -0.806771 C.ar        1 UNL1     0.1435
     30 C         4.916883   6.779241   -1.311236 C.ar        1 UNL1     0.0774
     31 O         3.656762   8.177943   0.044788 O.3        1 UNL1     -0.4436
     32 C         2.932905   6.946488   -0.098114 C.3        1 UNL1     0.3143
     33 C         3.945194   5.951138   -0.627985 C.2        1 UNL1     0.2504
     34 C         4.958768   10.561967   -0.827201 C.3        1 UNL1     -0.0327
     35 O         2.569037   6.511105   1.217673 O.2        1 UNL1     -0.4528
     36 C         -0.677105   4.585152   0.815982 C.3        1 UNL1     0.0854
     37 C         -0.983289   3.32476   -0.081341 C.3        1 UNL1     0.0236
     38 C         -1.587753   2.065269   0.706091 C.3        1 UNL1     0.1131
     39 C         -0.865387   1.533502   2.009042 C.3        1 UNL1     0.0200
     40 C         0.795437   1.384692   2.053264 C.3        1 UNL1     0.0661
     41 C         1.755383   0.613426   0.886531 C.3        1 UNL1     0.0091
     42 C         3.464695   0.972346   0.325431 C.3        1 UNL1     0.0661
     43 C         7.51872   7.44446   -3.882418 C.2        1 UNL1     0.2131
     44 O         7.921669   8.341412   -4.600642 O.2        1 UNL1     -0.2851
     45 O         7.179086   9.956187   -2.682102 O.3        1 UNL1     -0.5056
     46 O         3.958567   4.747635   -0.496624 O.2        1 UNL1     -0.2836
     47 C         5.562368   1.309939   1.939003 C.3        1 UNL1     -0.0566
     48 O         3.910318   -0.439606   0.408675 O.3        1 UNL1     -0.3909
     49 C         0.922964   0.381908   -0.354828 C.3        1 UNL1     -0.0577
     50 O         1.397339   2.601548   2.446582 O.3        1 UNL1     -0.3910
     51 O         -0.804065   4.396373   2.207267 O.3        1 UNL1     -0.3753
     52 C         0.062913   3.161684   -1.231914 C.3        1 UNL1     -0.0564
     53 O         -2.190796   1.027059   -0.194345 O.3        1 UNL1     -0.4608
     54 C         -2.416296   -0.282332   0.141177 C.2        1 UNL1     0.3042
     55 O         -1.845291   -1.27666   -0.305034 O.2        1 UNL1     -0.2512
     56 C         -3.447958   -0.457898   1.218936 C.3        1 UNL1     0.0332
     57 C         -1.58735   2.204513   3.26868 C.3        1 UNL1     -0.0567
     58 C         1.860143   7.193196   -1.184321 C.3        1 UNL1     0.0210
     59 C         -1.154887   5.568342   2.941624 C.3        1 UNL1     0.0372
     60 C         0.653545   5.211495   0.587456 C.2        1 UNL1     -0.0208
     61 C         1.565781   5.64533   1.458293 C.2        1 UNL1     0.0882
     62 H         4.695313   2.724683   0.585846 H        1 UNL1     0.0365
     63 H         6.344903   3.596786   -0.243925 H        1 UNL1     0.0576
     64 H         8.348265   1.473532   -1.2314 H        1 UNL1     0.0615
     65 H         8.287494   4.590958   -1.420666 H        1 UNL1     0.0622
     66 H         -1.419718   5.333006   0.504075 H        1 UNL1     0.0645
     67 H         -1.847127   3.63555   -0.694329 H        1 UNL1     0.0362
     68 H         -2.534584   2.504187   1.055927 H        1 UNL1     0.0741
     69 H         -1.199262   0.523155   2.204325 H        1 UNL1     0.0359
     70 H         0.904327   0.724559   2.934982 H        1 UNL1     0.0600
     71 H         1.796178   -0.407621   1.314031 H        1 UNL1     0.0348
     72 H         3.358029   1.461224   1.304684 H        1 UNL1     0.0602
     73 H         0.773685   5.408018   -0.448977 H        1 UNL1     0.0628
     74 H         1.545905   5.435209   2.528196 H        1 UNL1     0.1022
     75 H         10.966215   2.231281   -3.412766 H        1 UNL1     0.0279
     76 H         10.812658   3.419074   -4.64519 H        1 UNL1     0.0279
     77 H         11.929289   3.639441   -3.238112 H        1 UNL1     0.0279
     78 H         9.08456   4.785272   -5.006706 H        1 UNL1     0.1553
     79 H         7.802406   3.316205   -4.65436 H        1 UNL1     0.1484
     80 H         4.052231   2.720538   -4.798795 H        1 UNL1     0.0317
     81 H         4.790761   4.246544   -5.263343 H        1 UNL1     0.0317
     82 H         6.702548   3.052716   -6.364955 H        1 UNL1     0.0428
     83 H         5.146944   2.579334   -7.01126 H        1 UNL1     0.0428
     84 H         6.915612   -0.05946   -4.180761 H        1 UNL1     0.0428
     85 H         7.828916   1.349522   -4.592791 H        1 UNL1     0.0428
     86 H         6.532814   1.425196   -2.46224 H        1 UNL1     0.0317
     87 H         5.0379   1.200513   -3.247797 H        1 UNL1     0.0317
     88 H         7.277891   0.865341   -7.367949 H        1 UNL1     0.0429
     89 H         6.914922   -0.621115   -6.487642 H        1 UNL1     0.0429
     90 H         4.373913   0.173652   -7.288632 H        1 UNL1     0.0308
     91 H         6.295457   1.040644   -9.52728 H        1 UNL1     0.0233
     92 H         4.52677   0.884352   -9.678319 H        1 UNL1     0.0233
     93 H         5.218407   2.113995   -8.641874 H        1 UNL1     0.0233
     94 H         4.67528   -1.490086   -9.158584 H        1 UNL1     0.0233
     95 H         6.376864   -1.599016   -8.68206 H        1 UNL1     0.0233
     96 H         5.101201   -2.067718   -7.534457 H        1 UNL1     0.0233
     97 H         4.164012   10.514115   -0.088754 H        1 UNL1     0.0280
     98 H         5.771809   11.130625   -0.357256 H        1 UNL1     0.0280
     99 H         4.587762   11.12682   -1.698058 H        1 UNL1     0.0280
     100 H         6.714116   10.707303   -3.006524 H        1 UNL1     0.2922
     101 H         4.698198   0.876828   2.442274 H        1 UNL1     0.0236
     102 H         6.012318   2.115085   2.518889 H        1 UNL1     0.0236
     103 H         6.318169   0.506847   1.939647 H        1 UNL1     0.0236
     104 H         4.328041   -0.566003   1.283033 H        1 UNL1     0.2098
     105 H         0.712488   1.280991   -0.928553 H        1 UNL1     0.0234
     106 H         1.292382   -0.406652   -1.010291 H        1 UNL1     0.0234
     107 H         0.0   -0.0   0.0 H        1 UNL1     0.0234
     108 H         1.198937   3.260593   1.753715 H        1 UNL1     0.2098
     109 H         1.086062   3.040176   -0.849667 H        1 UNL1     0.0234
     110 H         -0.173242   2.338572   -1.914893 H        1 UNL1     0.0234
     111 H         0.091424   4.046693   -1.881447 H        1 UNL1     0.0234
     112 H         -3.576942   -1.521584   1.440927 H        1 UNL1     0.0342
     113 H         -3.198951   0.101739   2.119295 H        1 UNL1     0.0342
     114 H         -4.406082   -0.073811   0.842585 H        1 UNL1     0.0342
     115 H         -2.652132   1.938217   3.318825 H        1 UNL1     0.0234
     116 H         -1.138036   1.943542   4.22892 H        1 UNL1     0.0234
     117 H         -1.645533   3.304896   3.207739 H        1 UNL1     0.0234
     118 H         0.959301   7.682084   -0.77386 H        1 UNL1     0.0309
     119 H         2.232184   7.780037   -2.030138 H        1 UNL1     0.0309
     120 H         1.470488   6.261801   -1.6095 H        1 UNL1     0.0309
     121 H         -0.354745   6.295195   2.804462 H        1 UNL1     0.0524
     122 H         -2.087635   6.028269   2.574901 H        1 UNL1     0.0524
     123 H         -1.269318   5.33127   3.995567 H        1 UNL1     0.0524
@<TRIPOS>BOND
     1     1     2    1
     2     1    42    1
     3     2     3    2
     4     3     4    1
     5     4     5    2
     6     5     7    1
     7     6    75    1
     8     6    76    1
     9     6    77    1
    10     7     9   am
    11     9    10    1
    12    10    11    2
    13    10    43    1
    14    11    14    1
    15    11    15    1
    16    12    13   ar
    17    12    27   ar
    18    12    43    1
    19    13    14    1
    20    13    30   ar
    21    14    17    2
    22    15    16    1
    23    16    17    1
    24    16    18    1
    25    16    22    1
    26    18    19    1
    27    19    20    1
    28    20    21    1
    29    21    22    1
    30    23    24    1
    31    23    88    1
    32    23    89    1
    33    24    25    1
    34    24    26    1
    35    24    90    1
    36    25    91    1
    37    25    92    1
    38    25    93    1
    39    26    94    1
    40    26    95    1
    41    26    96    1
    42    27    28   ar
    43    28    29   ar
    44    29    30   ar
    45    29    31    1
    46    30    33    1
    47    31    32    1
    48    32    33    1
    49    32    35    1
    50    34    97    1
    51    34    98    1
    52    34    99    1
    53    35    61    1
    54    36    37    1
    55    36    60    1
    56    37    38    1
    57    38    39    1
    58    39    40    1
    59    40    41    1
    60    41    42    1
    61    45   100    1
    62    47   101    1
    63    47   102    1
    64    47   103    1
    65    48   104    1
    66    49   105    1
    67    49   106    1
    68    49   107    1
    69    50   108    1
    70    51    59    1
    71    52   109    1
    72    52   110    1
    73    52   111    1
    74    53    54    1
    75    54    55    2
    76    54    56    1
    77    56   112    1
    78    56   113    1
    79    56   114    1
    80    57   115    1
    81    57   116    1
    82    57   117    1
    83    58   118    1
    84    58   119    1
    85    58   120    1
    86    59   121    1
    87    59   122    1
    88    59   123    1
    89    60    61    2
    90     1    47    1
    91     1    62    1
    92     2    63    1
    93     3    64    1
    94     4    65    1
    95     5     6    1
    96     7     8    2
    97     9    78    1
    98    15    79    1
    99    18    80    1
   100    18    81    1
   101    19    82    1
   102    19    83    1
   103    20    23    1
   104    21    84    1
   105    21    85    1
   106    22    86    1
   107    22    87    1
   108    27    45    1
   109    28    34    1
   110    32    58    1
   111    33    46    2
   112    36    51    1
   113    36    66    1
   114    37    52    1
   115    37    67    1
   116    38    53    1
   117    38    68    1
   118    42    48    1
   119    42    72    1
   120    43    44    2
   121    60    73    1
   122    61    74    1
   123    39    69    1
   124    39    57    1
   125    40    70    1
   126    40    50    1
   127    41    71    1
   128    41    49    1
