@<TRIPOS>MOLECULE
*****
 123 128 0 0 0
SMALL
GASTEIGER

@<TRIPOS>ATOM
     1 C         5.29651   1.231829   0.545909 C.3        1 UNL1     0.0009
     2 C         6.851519   1.762739   -0.312647 C.2        1 UNL1     -0.0787
     3 C         8.126147   1.437632   -0.917358 C.2        1 UNL1     -0.0649
     4 C         9.182527   2.474329   -1.739354 C.2        1 UNL1     -0.0542
     5 C         10.257982   2.545507   -2.658816 C.2        1 UNL1     0.0115
     6 C         11.314725   1.702445   -3.424232 C.3        1 UNL1     -0.0348
     7 C         10.569097   3.94364   -3.383675 C.2        1 UNL1     0.2441
     8 O         11.485662   4.679489   -3.044615 O.2        1 UNL1     -0.2702
     9 N         9.88594   4.143418   -4.595919 N.am        1 UNL1     -0.2772
     10 C         8.659026   4.722311   -4.365949 C.2        1 UNL1     0.1049
     11 C         7.682258   3.900756   -4.026545 C.2        1 UNL1     0.0801
     12 C         7.551182   6.604822   -3.146865 C.ar        1 UNL1     0.0753
     13 C         6.634951   5.631072   -2.636043 C.ar        1 UNL1     0.0305
     14 C         6.59226   4.269412   -3.164354 C.2        1 UNL1     0.0924
     15 N         7.628768   2.558404   -4.068471 N.pl3        1 UNL1     -0.3170
     16 C         6.281575   2.16232   -3.754717 C.3        1 UNL1     0.1275
     17 N         5.753316   3.276163   -2.884074 N.2        1 UNL1     -0.2557
     18 C         5.479358   2.221401   -5.051119 C.3        1 UNL1     0.0016
     19 C         6.165613   1.34645   -6.087991 C.3        1 UNL1     0.0026
     20 N         6.236717   -0.015648   -5.57744 N.3        1 UNL1     -0.3018
     21 C         6.937291   -0.165103   -4.300245 C.3        1 UNL1     0.0026
     22 C         6.228473   0.718671   -3.272424 C.3        1 UNL1     0.0016
     23 C         6.596763   -0.98167   -6.596171 C.3        1 UNL1     0.0012
     24 C         5.445505   -1.162337   -7.59803 C.3        1 UNL1     -0.0339
     25 C         5.901725   -0.871819   -9.037307 C.3        1 UNL1     -0.0615
     26 C         4.856714   -2.556406   -7.468891 C.3        1 UNL1     -0.0615
     27 C         7.504744   7.93118   -2.724092 C.ar        1 UNL1     0.1347
     28 C         6.564938   8.408894   -1.82821 C.ar        1 UNL1     0.0342
     29 C         5.704421   7.422247   -1.30171 C.ar        1 UNL1     0.1435
     30 C         5.762633   6.082811   -1.688675 C.ar        1 UNL1     0.0774
     31 O         4.665332   7.747355   -0.501957 O.3        1 UNL1     -0.4436
     32 C         3.78809   6.612911   -0.567971 C.3        1 UNL1     0.3143
     33 C         4.672306   5.451544   -0.974912 C.2        1 UNL1     0.2504
     34 C         6.29461   9.85563   -1.521653 C.3        1 UNL1     -0.0327
     35 O         3.335997   6.345878   0.76528 O.2        1 UNL1     -0.4528
     36 C         -0.126006   4.831331   0.406441 C.3        1 UNL1     0.0854
     37 C         -0.573948   3.54766   -0.392971 C.3        1 UNL1     0.0236
     38 C         -1.360447   2.451683   0.474208 C.3        1 UNL1     0.1131
     39 C         -0.74879   1.946865   1.842895 C.3        1 UNL1     0.0200
     40 C         0.875828   1.587482   1.960776 C.3        1 UNL1     0.0661
     41 C         1.754282   0.598304   0.898958 C.3        1 UNL1     0.0091
     42 C         3.50994   0.680872   0.373361 C.3        1 UNL1     0.0661
     43 C         8.494791   6.175105   -4.208564 C.2        1 UNL1     0.2131
     44 O         9.031663   6.945367   -4.983937 O.2        1 UNL1     -0.2851
     45 O         8.461454   8.805298   -3.236012 O.3        1 UNL1     -0.5056
     46 O         4.5222   4.272777   -0.742901 O.2        1 UNL1     -0.2836
     47 C         5.59186   0.882783   2.029457 C.3        1 UNL1     -0.0566
     48 O         3.761625   -0.764278   0.590878 O.3        1 UNL1     -0.3909
     49 C         0.930538   0.369055   -0.348594 C.3        1 UNL1     -0.0577
     50 O         1.623884   2.745382   2.272869 O.3        1 UNL1     -0.3910
     51 O         -0.312521   4.783617   1.802996 O.3        1 UNL1     -0.3753
     52 C         0.470406   3.149307   -1.4864 C.3        1 UNL1     -0.0564
     53 O         -2.072899   1.425823   -0.357868 O.3        1 UNL1     -0.4608
     54 C         -2.46053   0.183531   0.071531 C.2        1 UNL1     0.3042
     55 O         -1.913932   -0.892922   -0.165785 O.2        1 UNL1     -0.2512
     56 C         -3.660865   0.206785   0.974508 C.3        1 UNL1     0.0332
     57 C         -1.407159   2.814197   3.014415 C.3        1 UNL1     -0.0567
     58 C         2.785817   6.90088   -1.709922 C.3        1 UNL1     0.0210
     59 C         -0.483895   6.054495   2.428588 C.3        1 UNL1     0.0372
     60 C         1.281511   5.256527   0.175649 C.2        1 UNL1     -0.0208
     61 C         2.220721   5.642646   1.040253 C.2        1 UNL1     0.0882
     62 H         4.955514   2.274051   0.53154 H        1 UNL1     0.0365
     63 H         6.727101   2.847614   -0.306751 H        1 UNL1     0.0576
     64 H         8.455043   0.403082   -1.038361 H        1 UNL1     0.0615
     65 H         8.814106   3.473099   -1.489941 H        1 UNL1     0.0622
     66 H         -0.754376   5.639226   0.005813 H        1 UNL1     0.0645
     67 H         -1.37282   3.913263   -1.061326 H        1 UNL1     0.0362
     68 H         -2.24917   3.039189   0.75085 H        1 UNL1     0.0741
     69 H         -1.218906   1.009695   2.109562 H        1 UNL1     0.0359
     70 H         0.87338   0.998797   2.898061 H        1 UNL1     0.0600
     71 H         1.648017   -0.377836   1.411612 H        1 UNL1     0.0348
     72 H         3.44417   1.263573   1.303656 H        1 UNL1     0.0602
     73 H         1.45321   5.343942   -0.868442 H        1 UNL1     0.0628
     74 H         2.145697   5.531683   2.122517 H        1 UNL1     0.1022
     75 H         11.155412   0.612703   -3.239527 H        1 UNL1     0.0279
     76 H         11.289162   1.76221   -4.509978 H        1 UNL1     0.0279
     77 H         12.333603   1.841772   -3.034136 H        1 UNL1     0.0279
     78 H         9.721496   3.24626   -5.04774 H        1 UNL1     0.1553
     79 H         8.246827   1.99336   -4.621338 H        1 UNL1     0.1484
     80 H         4.45569   1.880822   -4.853947 H        1 UNL1     0.0317
     81 H         5.402182   3.250901   -5.416941 H        1 UNL1     0.0317
     82 H         7.165871   1.726159   -6.343368 H        1 UNL1     0.0428
     83 H         5.578209   1.404494   -7.004853 H        1 UNL1     0.0428
     84 H         6.907311   -1.18331   -3.900035 H        1 UNL1     0.0428
     85 H         8.010067   0.053047   -4.394478 H        1 UNL1     0.0428
     86 H         6.6814   0.483694   -2.327103 H        1 UNL1     0.0317
     87 H         5.190495   0.387507   -3.145824 H        1 UNL1     0.0317
     88 H         7.472747   -0.598553   -7.135771 H        1 UNL1     0.0429
     89 H         6.888056   -1.941468   -6.150403 H        1 UNL1     0.0429
     90 H         4.634761   -0.469898   -7.342227 H        1 UNL1     0.0308
     91 H         6.855248   -1.360616   -9.258609 H        1 UNL1     0.0233
     92 H         5.15084   -1.208478   -9.755945 H        1 UNL1     0.0233
     93 H         6.04316   0.199916   -9.222285 H        1 UNL1     0.0233
     94 H         4.249163   -2.79284   -8.349128 H        1 UNL1     0.0233
     95 H         5.65928   -3.29648   -7.404541 H        1 UNL1     0.0233
     96 H         4.225367   -2.642169   -6.580064 H        1 UNL1     0.0233
     97 H         5.42995   9.980811   -0.876732 H        1 UNL1     0.0280
     98 H         7.133013   10.330908   -0.99587 H        1 UNL1     0.0280
     99 H         6.107949   10.403079   -2.46003 H        1 UNL1     0.0280
     100 H         8.114109   9.612891   -3.57182 H        1 UNL1     0.2922
     101 H         4.655185   0.722675   2.562994 H        1 UNL1     0.0236
     102 H         6.224318   1.618472   2.52518 H        1 UNL1     0.0236
     103 H         6.137604   -0.070244   2.129938 H        1 UNL1     0.0236
     104 H         4.044616   -0.877917   1.519303 H        1 UNL1     0.2098
     105 H         0.735774   1.26708   -0.92948 H        1 UNL1     0.0234
     106 H         1.296683   -0.427632   -0.996015 H        1 UNL1     0.0234
     107 H         0.0   -0.0   0.0 H        1 UNL1     0.0234
     108 H         1.586908   3.33333   1.493948 H        1 UNL1     0.2098
     109 H         1.462911   2.947625   -1.059821 H        1 UNL1     0.0234
     110 H         0.152526   2.295497   -2.094433 H        1 UNL1     0.0234
     111 H         0.619115   3.955659   -2.216898 H        1 UNL1     0.0234
     112 H         -3.903921   -0.810287   1.296742 H        1 UNL1     0.0342
     113 H         -3.516542   0.863928   1.830766 H        1 UNL1     0.0342
     114 H         -4.514925   0.591221   0.40009 H        1 UNL1     0.0342
     115 H         -2.504502   2.808243   2.959716 H        1 UNL1     0.0234
     116 H         -1.126675   2.489634   4.018426 H        1 UNL1     0.0234
     117 H         -1.195658   3.894368   2.934169 H        1 UNL1     0.0234
     118 H         1.945307   7.533219   -1.374218 H        1 UNL1     0.0309
     119 H         3.253297   7.361904   -2.585777 H        1 UNL1     0.0309
     120 H         2.290208   5.993844   -2.072915 H        1 UNL1     0.0309
     121 H         -0.161394   5.957986   3.464945 H        1 UNL1     0.0524
     122 H         0.134464   6.838199   1.960103 H        1 UNL1     0.0524
     123 H         -1.526625   6.356297   2.387067 H        1 UNL1     0.0524
@<TRIPOS>BOND
     1     1     2    1
     2     1    42    1
     3     2     3    2
     4     3     4    1
     5     4     5    2
     6     5     7    1
     7     6    75    1
     8     6    76    1
     9     6    77    1
    10     7     9   am
    11     9    10    1
    12    10    11    2
    13    10    43    1
    14    11    14    1
    15    11    15    1
    16    12    13   ar
    17    12    27   ar
    18    12    43    1
    19    13    14    1
    20    13    30   ar
    21    14    17    2
    22    15    16    1
    23    16    17    1
    24    16    18    1
    25    16    22    1
    26    18    19    1
    27    19    20    1
    28    20    21    1
    29    21    22    1
    30    23    24    1
    31    23    88    1
    32    23    89    1
    33    24    25    1
    34    24    26    1
    35    24    90    1
    36    25    91    1
    37    25    92    1
    38    25    93    1
    39    26    94    1
    40    26    95    1
    41    26    96    1
    42    27    28   ar
    43    28    29   ar
    44    29    30   ar
    45    29    31    1
    46    30    33    1
    47    31    32    1
    48    32    33    1
    49    32    35    1
    50    34    97    1
    51    34    98    1
    52    34    99    1
    53    35    61    1
    54    36    37    1
    55    36    60    1
    56    37    38    1
    57    38    39    1
    58    39    40    1
    59    40    41    1
    60    41    42    1
    61    45   100    1
    62    47   101    1
    63    47   102    1
    64    47   103    1
    65    48   104    1
    66    49   105    1
    67    49   106    1
    68    49   107    1
    69    50   108    1
    70    51    59    1
    71    52   109    1
    72    52   110    1
    73    52   111    1
    74    53    54    1
    75    54    55    2
    76    54    56    1
    77    56   112    1
    78    56   113    1
    79    56   114    1
    80    57   115    1
    81    57   116    1
    82    57   117    1
    83    58   118    1
    84    58   119    1
    85    58   120    1
    86    59   121    1
    87    59   122    1
    88    59   123    1
    89    60    61    2
    90     1    47    1
    91     1    62    1
    92     2    63    1
    93     3    64    1
    94     4    65    1
    95     5     6    1
    96     7     8    2
    97     9    78    1
    98    15    79    1
    99    18    80    1
   100    18    81    1
   101    19    82    1
   102    19    83    1
   103    20    23    1
   104    21    84    1
   105    21    85    1
   106    22    86    1
   107    22    87    1
   108    27    45    1
   109    28    34    1
   110    32    58    1
   111    33    46    2
   112    36    51    1
   113    36    66    1
   114    37    52    1
   115    37    67    1
   116    38    53    1
   117    38    68    1
   118    42    48    1
   119    42    72    1
   120    43    44    2
   121    60    73    1
   122    61    74    1
   123    39    69    1
   124    39    57    1
   125    40    70    1
   126    40    50    1
   127    41    71    1
   128    41    49    1
