@<TRIPOS>MOLECULE
*****
 123 128 0 0 0
SMALL
GASTEIGER

@<TRIPOS>ATOM
     1 C         -3.907807   2.988775   2.40685 C.3        1 UNL1     0.0009
     2 C         -4.265692   4.366683   3.594421 C.2        1 UNL1     -0.0787
     3 C         -4.701288   4.819318   4.898808 C.2        1 UNL1     -0.0649
     4 C         -4.706737   6.400798   5.503166 C.2        1 UNL1     -0.0542
     5 C         -4.740829   7.195646   6.6754 C.2        1 UNL1     0.0115
     6 C         -4.959245   7.158362   8.213004 C.3        1 UNL1     -0.0348
     7 C         -4.286762   8.732748   6.585234 C.2        1 UNL1     0.2441
     8 O         -5.082926   9.660953   6.552323 O.2        1 UNL1     -0.2702
     9 N         -2.917174   8.956434   6.809612 N.am        1 UNL1     -0.2772
     10 C         -2.213847   8.849353   5.631822 C.2        1 UNL1     0.1049
     11 C         -1.885919   7.625573   5.258932 C.2        1 UNL1     0.0801
     12 C         -2.201521   9.619294   3.251828 C.ar        1 UNL1     0.0753
     13 C         -2.054417   8.242517   2.889263 C.ar        1 UNL1     0.0305
     14 C         -1.759833   7.215936   3.886461 C.2        1 UNL1     0.0924
     15 N         -1.941301   6.470025   5.94316 N.pl3        1 UNL1     -0.3170
     16 C         -1.308057   5.455149   5.143608 C.3        1 UNL1     0.1275
     17 N         -1.496045   5.922882   3.721072 N.2        1 UNL1     -0.2557
     18 C         0.190452   5.53141   5.419936 C.3        1 UNL1     0.0016
     19 C         0.417196   5.38421   6.9161 C.3        1 UNL1     0.0026
     20 N         -0.131013   4.106213   7.348787 N.3        1 UNL1     -0.3018
     21 C         -1.555603   3.914218   7.069411 C.3        1 UNL1     0.0026
     22 C         -1.759778   4.061738   5.560622 C.3        1 UNL1     0.0016
     23 C         0.292184   3.734128   8.684115 C.3        1 UNL1     0.0012
     24 C         1.82401   3.784   8.797152 C.3        1 UNL1     -0.0339
     25 C         2.372824   5.163374   8.39692 C.3        1 UNL1     -0.0615
     26 C         2.255513   3.396514   10.200875 C.3        1 UNL1     -0.0615
     27 C         -2.361834   10.607518   2.283411 C.ar        1 UNL1     0.1347
     28 C         -2.351121   10.346485   0.924809 C.ar        1 UNL1     0.0342
     29 C         -2.254013   8.978429   0.59291 C.ar        1 UNL1     0.1435
     30 C         -2.129189   7.97382   1.553327 C.ar        1 UNL1     0.0774
     31 O         -2.119851   8.571891   -0.688391 O.3        1 UNL1     -0.4436
     32 C         -1.587737   7.241987   -0.593078 C.3        1 UNL1     0.3143
     33 C         -1.984291   6.754521   0.785811 C.2        1 UNL1     0.2504
     34 C         -2.265013   11.373502   -0.169687 C.3        1 UNL1     -0.0327
     35 O         -2.293646   6.431788   -1.540982 O.2        1 UNL1     -0.4528
     36 C         0.148325   3.737432   -2.629702 C.3        1 UNL1     0.0854
     37 C         0.921046   2.679374   -1.751671 C.3        1 UNL1     0.0236
     38 C         0.707301   1.151761   -2.190369 C.3        1 UNL1     0.1131
     39 C         -0.757674   0.591632   -2.396219 C.3        1 UNL1     0.0200
     40 C         -1.963673   0.958324   -1.303727 C.3        1 UNL1     0.0661
     41 C         -1.857424   0.804623   0.382303 C.3        1 UNL1     0.0091
     42 C         -2.635971   1.791311   1.71861 C.3        1 UNL1     0.0661
     43 C         -2.088042   9.970877   4.689108 C.2        1 UNL1     0.2131
     44 O         -1.804757   11.085585   5.088999 O.2        1 UNL1     -0.2851
     45 O         -2.544257   11.917293   2.722329 O.3        1 UNL1     -0.5056
     46 O         -2.162353   5.617118   1.160593 O.2        1 UNL1     -0.2836
     47 C         -5.231878   2.390527   1.860117 C.3        1 UNL1     -0.0566
     48 O         -3.096227   0.6059   2.481552 O.3        1 UNL1     -0.3909
     49 C         -0.406796   0.61157   0.764277 C.3        1 UNL1     -0.0577
     50 O         -2.588875   2.180793   -1.639012 O.3        1 UNL1     -0.3910
     51 O         -0.761935   3.211497   -3.568984 O.3        1 UNL1     -0.3753
     52 C         0.99343   3.11073   -0.250458 C.3        1 UNL1     -0.0564
     53 O         1.704443   0.207807   -1.584578 O.3        1 UNL1     -0.4608
     54 C         1.610985   -1.159362   -1.591279 C.2        1 UNL1     0.3042
     55 O         0.619959   -1.841497   -1.333602 O.2        1 UNL1     -0.2512
     56 C         2.875331   -1.846483   -2.022563 C.3        1 UNL1     0.0332
     57 C         -1.103126   0.705517   -3.953739 C.3        1 UNL1     -0.0567
     58 C         -0.048623   7.381611   -0.649321 C.3        1 UNL1     0.0210
     59 C         -0.616678   3.720099   -4.894159 C.3        1 UNL1     0.0372
     60 C         -0.583833   4.779381   -1.859347 C.2        1 UNL1     -0.0208
     61 C         -1.814791   5.267232   -2.018992 C.2        1 UNL1     0.0882
     62 H         -3.5744   3.733025   1.673608 H        1 UNL1     0.0365
     63 H         -4.088178   5.235708   2.957432 H        1 UNL1     0.0576
     64 H         -4.926004   4.115509   5.703334 H        1 UNL1     0.0615
     65 H         -4.553611   7.019745   4.614943 H        1 UNL1     0.0622
     66 H         0.937629   4.268577   -3.180094 H        1 UNL1     0.0645
     67 H         1.981708   2.836696   -2.01398 H        1 UNL1     0.0362
     68 H         1.150833   1.185732   -3.19717 H        1 UNL1     0.0741
     69 H         -0.72536   -0.489127   -2.35983 H        1 UNL1     0.0359
     70 H         -2.70728   0.184199   -1.573615 H        1 UNL1     0.0600
     71 H         -2.253482   -0.222149   0.50813 H        1 UNL1     0.0348
     72 H         -3.225539   1.990288   0.811894 H        1 UNL1     0.0602
     73 H         0.079832   5.230734   -1.164308 H        1 UNL1     0.0628
     74 H         -2.573412   4.826841   -2.666903 H        1 UNL1     0.1022
     75 H         -4.029865   6.822274   8.732938 H        1 UNL1     0.0279
     76 H         -5.16713   8.110146   8.696698 H        1 UNL1     0.0279
     77 H         -5.673728   6.38149   8.522333 H        1 UNL1     0.0279
     78 H         -2.555378   8.250725   7.447699 H        1 UNL1     0.1553
     79 H         -1.997958   6.417306   6.943632 H        1 UNL1     0.1484
     80 H         0.698452   4.738413   4.857923 H        1 UNL1     0.0317
     81 H         0.605663   6.48134   5.066545 H        1 UNL1     0.0317
     82 H         -0.028637   6.217217   7.479345 H        1 UNL1     0.0428
     83 H         1.49188   5.44328   7.091075 H        1 UNL1     0.0428
     84 H         -1.923513   2.917322   7.331427 H        1 UNL1     0.0428
     85 H         -2.183541   4.594433   7.661287 H        1 UNL1     0.0428
     86 H         -2.781635   3.785055   5.378298 H        1 UNL1     0.0317
     87 H         -1.189272   3.290956   5.02816 H        1 UNL1     0.0317
     88 H         -0.134186   4.45741   9.39148 H        1 UNL1     0.0429
     89 H         -0.093514   2.745244   8.963616 H        1 UNL1     0.0429
     90 H         2.258091   3.028835   8.131183 H        1 UNL1     0.0308
     91 H         3.23309   5.443025   9.012421 H        1 UNL1     0.0233
     92 H         2.66681   5.171697   7.344727 H        1 UNL1     0.0233
     93 H         1.626974   5.959127   8.512329 H        1 UNL1     0.0233
     94 H         3.263576   2.968416   10.181491 H        1 UNL1     0.0233
     95 H         2.277444   4.281664   10.84274 H        1 UNL1     0.0233
     96 H         1.575662   2.660028   10.638321 H        1 UNL1     0.0233
     97 H         -1.369981   11.252389   -0.772581 H        1 UNL1     0.0280
     98 H         -3.109295   11.305709   -0.868147 H        1 UNL1     0.0280
     99 H         -2.25003   12.383293   0.272119 H        1 UNL1     0.0280
     100 H         -2.368182   12.575765   2.073458 H        1 UNL1     0.2922
     101 H         -5.133445   2.194117   0.792695 H        1 UNL1     0.0236
     102 H         -6.10409   3.003645   2.084428 H        1 UNL1     0.0236
     103 H         -5.457309   1.407369   2.305958 H        1 UNL1     0.0236
     104 H         -2.720584   -0.186492   2.0503 H        1 UNL1     0.2098
     105 H         0.174165   1.52972   0.800257 H        1 UNL1     0.0234
     106 H         -0.248484   0.028558   1.671449 H        1 UNL1     0.0234
     107 H         0.0   0.0   0.0 H        1 UNL1     0.0234
     108 H         -1.88561   2.800983   -1.912052 H        1 UNL1     0.2098
     109 H         1.99616   3.458649   0.034494 H        1 UNL1     0.0234
     110 H         0.252235   3.872339   0.014732 H        1 UNL1     0.0234
     111 H         0.767   2.27314   0.422684 H        1 UNL1     0.0234
     112 H         2.632956   -2.739832   -2.606109 H        1 UNL1     0.0342
     113 H         3.532813   -1.181675   -2.580767 H        1 UNL1     0.0342
     114 H         3.415071   -2.168974   -1.121538 H        1 UNL1     0.0342
     115 H         -1.536588   -0.225172   -4.345041 H        1 UNL1     0.0234
     116 H         -1.792201   1.516573   -4.197488 H        1 UNL1     0.0234
     117 H         -0.21158   0.811665   -4.59547 H        1 UNL1     0.0234
     118 H         0.28995   8.377091   -0.312582 H        1 UNL1     0.0309
     119 H         0.473966   6.611661   -0.072884 H        1 UNL1     0.0309
     120 H         0.342574   7.313823   -1.670339 H        1 UNL1     0.0309
     121 H         -0.891417   4.774373   -4.874627 H        1 UNL1     0.0524
     122 H         0.423024   3.654631   -5.255783 H        1 UNL1     0.0524
     123 H         -1.262718   3.177002   -5.578096 H        1 UNL1     0.0524
@<TRIPOS>BOND
     1     1     2    1
     2     1    42    1
     3     2     3    2
     4     3     4    1
     5     4     5    2
     6     5     7    1
     7     6    75    1
     8     6    76    1
     9     6    77    1
    10     7     9   am
    11     9    10    1
    12    10    11    2
    13    10    43    1
    14    11    14    1
    15    11    15    1
    16    12    13   ar
    17    12    27   ar
    18    12    43    1
    19    13    14    1
    20    13    30   ar
    21    14    17    2
    22    15    16    1
    23    16    17    1
    24    16    18    1
    25    16    22    1
    26    18    19    1
    27    19    20    1
    28    20    21    1
    29    21    22    1
    30    23    24    1
    31    23    88    1
    32    23    89    1
    33    24    25    1
    34    24    26    1
    35    24    90    1
    36    25    91    1
    37    25    92    1
    38    25    93    1
    39    26    94    1
    40    26    95    1
    41    26    96    1
    42    27    28   ar
    43    28    29   ar
    44    29    30   ar
    45    29    31    1
    46    30    33    1
    47    31    32    1
    48    32    33    1
    49    32    35    1
    50    34    97    1
    51    34    98    1
    52    34    99    1
    53    35    61    1
    54    36    37    1
    55    36    60    1
    56    37    38    1
    57    38    39    1
    58    39    40    1
    59    40    41    1
    60    41    42    1
    61    45   100    1
    62    47   101    1
    63    47   102    1
    64    47   103    1
    65    48   104    1
    66    49   105    1
    67    49   106    1
    68    49   107    1
    69    50   108    1
    70    51    59    1
    71    52   109    1
    72    52   110    1
    73    52   111    1
    74    53    54    1
    75    54    55    2
    76    54    56    1
    77    56   112    1
    78    56   113    1
    79    56   114    1
    80    57   115    1
    81    57   116    1
    82    57   117    1
    83    58   118    1
    84    58   119    1
    85    58   120    1
    86    59   121    1
    87    59   122    1
    88    59   123    1
    89    60    61    2
    90     1    47    1
    91     1    62    1
    92     2    63    1
    93     3    64    1
    94     4    65    1
    95     5     6    1
    96     7     8    2
    97     9    78    1
    98    15    79    1
    99    18    80    1
   100    18    81    1
   101    19    82    1
   102    19    83    1
   103    20    23    1
   104    21    84    1
   105    21    85    1
   106    22    86    1
   107    22    87    1
   108    27    45    1
   109    28    34    1
   110    32    58    1
   111    33    46    2
   112    36    51    1
   113    36    66    1
   114    37    52    1
   115    37    67    1
   116    38    53    1
   117    38    68    1
   118    42    48    1
   119    42    72    1
   120    43    44    2
   121    60    73    1
   122    61    74    1
   123    39    69    1
   124    39    57    1
   125    40    70    1
   126    40    50    1
   127    41    71    1
   128    41    49    1
