@<TRIPOS>MOLECULE
*****
 123 128 0 0 0
SMALL
GASTEIGER

@<TRIPOS>ATOM
     1 C         3.322095   3.210644   2.941891 C.3        1 UNL1     0.0009
     2 C         4.398311   4.72021   2.939703 C.2        1 UNL1     -0.0787
     3 C         5.711546   5.326459   2.877079 C.2        1 UNL1     -0.0649
     4 C         6.094464   6.973636   2.79621 C.2        1 UNL1     -0.0542
     5 C         7.091452   7.918148   2.448375 C.2        1 UNL1     0.0115
     6 C         8.584297   8.080654   2.050473 C.3        1 UNL1     -0.0348
     7 C         6.663912   9.447068   2.210459 C.2        1 UNL1     0.2441
     8 O         6.848791   10.326578   3.040403 O.2        1 UNL1     -0.2702
     9 N         6.302675   9.758683   0.88813 N.am        1 UNL1     -0.2772
     10 C         4.961752   9.523331   0.688487 C.2        1 UNL1     0.1049
     11 C         4.623831   8.275709   0.417432 C.2        1 UNL1     0.0801
     12 C         2.703127   9.962528   1.669841 C.ar        1 UNL1     0.0753
     13 C         2.462646   8.556992   1.546369 C.ar        1 UNL1     0.0305
     14 C         3.366298   7.689268   0.794358 C.2        1 UNL1     0.0924
     15 N         5.394368   7.222547   0.095482 N.pl3        1 UNL1     -0.3170
     16 C         4.524003   6.137031   -0.271086 C.3        1 UNL1     0.1275
     17 N         3.250476   6.398479   0.495398 N.2        1 UNL1     -0.2557
     18 C         4.17504   6.315412   -1.745571 C.3        1 UNL1     0.0016
     19 C         5.465842   6.382911   -2.546111 C.3        1 UNL1     0.0026
     20 N         6.215102   5.152881   -2.330093 N.3        1 UNL1     -0.3018
     21 C         6.544517   4.86276   -0.933066 C.3        1 UNL1     0.0026
     22 C         5.233239   4.794846   -0.148317 C.3        1 UNL1     0.0016
     23 C         7.305734   4.984509   -3.269676 C.3        1 UNL1     0.0012
     24 C         6.763507   4.689385   -4.677031 C.3        1 UNL1     -0.0339
     25 C         6.786922   5.945421   -5.563531 C.3        1 UNL1     -0.0615
     26 C         7.541715   3.546726   -5.305922 C.3        1 UNL1     -0.0615
     27 C         1.776745   10.802054   2.283951 C.ar        1 UNL1     0.1347
     28 C         0.561483   10.35955   2.775254 C.ar        1 UNL1     0.0342
     29 C         0.36781   8.964632   2.686601 C.ar        1 UNL1     0.1435
     30 C         1.302699   8.106254   2.10661 C.ar        1 UNL1     0.0774
     31 O         -0.810099   8.393999   3.021141 O.3        1 UNL1     -0.4436
     32 C         -0.79031   7.113866   2.371726 C.3        1 UNL1     0.3143
     33 C         0.676766   6.801462   2.156538 C.2        1 UNL1     0.2504
     34 C         -0.581553   11.231087   3.215697 C.3        1 UNL1     -0.0327
     35 O         -1.288307   6.15237   3.310223 O.2        1 UNL1     -0.4528
     36 C         -2.956883   3.444152   1.239112 C.3        1 UNL1     0.0854
     37 C         -2.347669   2.549933   0.091614 C.3        1 UNL1     0.0236
     38 C         -2.498588   0.969022   0.314526 C.3        1 UNL1     0.1131
     39 C         -2.046454   0.322765   1.685729 C.3        1 UNL1     0.0200
     40 C         -0.612466   0.781559   2.403798 C.3        1 UNL1     0.0661
     41 C         0.899875   0.863167   1.639745 C.3        1 UNL1     0.0091
     42 C         2.320324   1.987383   1.929346 C.3        1 UNL1     0.0661
     43 C         3.931263   10.510763   1.042639 C.2        1 UNL1     0.2131
     44 O         4.063784   11.680754   0.732323 O.2        1 UNL1     -0.2851
     45 O         2.108061   12.150109   2.404022 O.3        1 UNL1     -0.5056
     46 O         1.211635   5.718862   2.068534 O.2        1 UNL1     -0.2836
     47 C         3.411685   2.486482   4.312126 C.3        1 UNL1     -0.0566
     48 O         3.326032   0.897703   1.945584 O.3        1 UNL1     -0.3909
     49 C         0.69524   0.787258   0.143131 C.3        1 UNL1     -0.0577
     50 O         -0.802727   1.918689   3.221391 O.3        1 UNL1     -0.3910
     51 O         -3.39682   2.75627   2.388332 O.3        1 UNL1     -0.3753
     52 C         -1.053563   3.184019   -0.515158 C.3        1 UNL1     -0.0564
     53 O         -2.238755   0.160534   -0.922874 O.3        1 UNL1     -0.4608
     54 C         -1.894201   -1.165573   -0.948431 C.2        1 UNL1     0.3042
     55 O         -0.812256   -1.649905   -1.278062 O.2        1 UNL1     -0.2512
     56 C         -2.98056   -2.078797   -0.455927 C.3        1 UNL1     0.0332
     57 C         -3.342667   0.208778   2.615789 C.3        1 UNL1     -0.0567
     58 C         -1.465498   7.311542   0.994564 C.3        1 UNL1     0.0210
     59 C         -4.433184   3.410814   3.118665 C.3        1 UNL1     0.0372
     60 C         -2.076937   4.548184   1.710249 C.2        1 UNL1     -0.0208
     61 C         -1.788192   4.955663   2.946911 C.2        1 UNL1     0.0882
     62 H         2.441206   3.862181   2.989273 H        1 UNL1     0.0365
     63 H         3.653432   5.501526   3.104537 H        1 UNL1     0.0576
     64 H         6.610098   4.729375   2.706192 H        1 UNL1     0.0615
     65 H         5.15704   7.472232   3.057212 H        1 UNL1     0.0622
     66 H         -3.82837   3.929495   0.777593 H        1 UNL1     0.0645
     67 H         -3.023449   2.716258   -0.76525 H        1 UNL1     0.0362
     68 H         -3.595989   0.885182   0.300268 H        1 UNL1     0.0741
     69 H         -1.909553   -0.740578   1.540924 H        1 UNL1     0.0359
     70 H         -0.48103   -0.053746   3.117977 H        1 UNL1     0.0600
     71 H         1.281986   -0.153271   1.858381 H        1 UNL1     0.0348
     72 H         1.705094   2.035404   2.839566 H        1 UNL1     0.0602
     73 H         -1.754185   5.118304   0.87476 H        1 UNL1     0.0628
     74 H         -2.03158   4.398656   3.852307 H        1 UNL1     0.1022
     75 H         9.082963   7.083705   1.983693 H        1 UNL1     0.0279
     76 H         8.781234   8.507269   1.069512 H        1 UNL1     0.0279
     77 H         9.182183   8.57012   2.833198 H        1 UNL1     0.0279
     78 H         6.817614   9.162681   0.243385 H        1 UNL1     0.1553
     79 H         6.334979   7.303844   -0.244482 H        1 UNL1     0.1484
     80 H         3.546958   5.476319   -2.068375 H        1 UNL1     0.0317
     81 H         3.586078   7.225707   -1.900935 H        1 UNL1     0.0317
     82 H         6.066143   7.264483   -2.277074 H        1 UNL1     0.0428
     83 H         5.193945   6.512021   -3.594182 H        1 UNL1     0.0428
     84 H         7.036489   3.895626   -0.790141 H        1 UNL1     0.0428
     85 H         7.259438   5.589053   -0.522332 H        1 UNL1     0.0428
     86 H         5.500991   4.451656   0.833782 H        1 UNL1     0.0317
     87 H         4.604989   3.984483   -0.537817 H        1 UNL1     0.0317
     88 H         7.874832   5.92272   -3.304047 H        1 UNL1     0.0429
     89 H         7.998759   4.199885   -2.939744 H        1 UNL1     0.0429
     90 H         5.727998   4.338008   -4.596608 H        1 UNL1     0.0308
     91 H         7.796586   6.360105   -5.63914 H        1 UNL1     0.0233
     92 H         6.416738   5.717734   -6.565894 H        1 UNL1     0.0233
     93 H         6.143536   6.743611   -5.173939 H        1 UNL1     0.0233
     94 H         7.306191   3.471599   -6.37303 H        1 UNL1     0.0233
     95 H         8.61578   3.728653   -5.209746 H        1 UNL1     0.0233
     96 H         7.301593   2.591369   -4.830945 H        1 UNL1     0.0233
     97 H         -1.44617   10.647468   3.517455 H        1 UNL1     0.0280
     98 H         -0.319285   11.850382   4.083421 H        1 UNL1     0.0280
     99 H         -0.882894   11.891629   2.386255 H        1 UNL1     0.0280
     100 H         1.463509   12.743765   2.060878 H        1 UNL1     0.2922
     101 H         2.734252   1.632874   4.321838 H        1 UNL1     0.0236
     102 H         3.245019   3.150542   5.159611 H        1 UNL1     0.0236
     103 H         4.410566   2.053041   4.486938 H        1 UNL1     0.0236
     104 H         3.461452   0.635168   2.877092 H        1 UNL1     0.2098
     105 H         0.274661   1.687019   -0.298857 H        1 UNL1     0.0234
     106 H         1.570127   0.463038   -0.420235 H        1 UNL1     0.0234
     107 H         0.0   0.0   -0.0 H        1 UNL1     0.0234
     108 H         -1.045334   2.660639   2.634517 H        1 UNL1     0.2098
     109 H         -0.270781   3.335884   0.241083 H        1 UNL1     0.0234
     110 H         -0.645881   2.610238   -1.354392 H        1 UNL1     0.0234
     111 H         -1.250939   4.176359   -0.942067 H        1 UNL1     0.0234
     112 H         -2.634773   -3.116619   -0.482421 H        1 UNL1     0.0342
     113 H         -3.323675   -1.806626   0.541087 H        1 UNL1     0.0342
     114 H         -3.837415   -1.991792   -1.138125 H        1 UNL1     0.0342
     115 H         -4.130936   -0.395091   2.145511 H        1 UNL1     0.0234
     116 H         -3.145851   -0.218127   3.601216 H        1 UNL1     0.0234
     117 H         -3.867001   1.16921   2.759262 H        1 UNL1     0.0234
     118 H         -2.566436   7.262181   1.061678 H        1 UNL1     0.0309
     119 H         -1.178108   8.247774   0.505608 H        1 UNL1     0.0309
     120 H         -1.219493   6.512053   0.287171 H        1 UNL1     0.0309
     121 H         -4.026363   4.346328   3.501636 H        1 UNL1     0.0524
     122 H         -5.299075   3.660817   2.483237 H        1 UNL1     0.0524
     123 H         -4.767985   2.783586   3.939997 H        1 UNL1     0.0524
@<TRIPOS>BOND
     1     1     2    1
     2     1    42    1
     3     2     3    2
     4     3     4    1
     5     4     5    2
     6     5     7    1
     7     6    75    1
     8     6    76    1
     9     6    77    1
    10     7     9   am
    11     9    10    1
    12    10    11    2
    13    10    43    1
    14    11    14    1
    15    11    15    1
    16    12    13   ar
    17    12    27   ar
    18    12    43    1
    19    13    14    1
    20    13    30   ar
    21    14    17    2
    22    15    16    1
    23    16    17    1
    24    16    18    1
    25    16    22    1
    26    18    19    1
    27    19    20    1
    28    20    21    1
    29    21    22    1
    30    23    24    1
    31    23    88    1
    32    23    89    1
    33    24    25    1
    34    24    26    1
    35    24    90    1
    36    25    91    1
    37    25    92    1
    38    25    93    1
    39    26    94    1
    40    26    95    1
    41    26    96    1
    42    27    28   ar
    43    28    29   ar
    44    29    30   ar
    45    29    31    1
    46    30    33    1
    47    31    32    1
    48    32    33    1
    49    32    35    1
    50    34    97    1
    51    34    98    1
    52    34    99    1
    53    35    61    1
    54    36    37    1
    55    36    60    1
    56    37    38    1
    57    38    39    1
    58    39    40    1
    59    40    41    1
    60    41    42    1
    61    45   100    1
    62    47   101    1
    63    47   102    1
    64    47   103    1
    65    48   104    1
    66    49   105    1
    67    49   106    1
    68    49   107    1
    69    50   108    1
    70    51    59    1
    71    52   109    1
    72    52   110    1
    73    52   111    1
    74    53    54    1
    75    54    55    2
    76    54    56    1
    77    56   112    1
    78    56   113    1
    79    56   114    1
    80    57   115    1
    81    57   116    1
    82    57   117    1
    83    58   118    1
    84    58   119    1
    85    58   120    1
    86    59   121    1
    87    59   122    1
    88    59   123    1
    89    60    61    2
    90     1    47    1
    91     1    62    1
    92     2    63    1
    93     3    64    1
    94     4    65    1
    95     5     6    1
    96     7     8    2
    97     9    78    1
    98    15    79    1
    99    18    80    1
   100    18    81    1
   101    19    82    1
   102    19    83    1
   103    20    23    1
   104    21    84    1
   105    21    85    1
   106    22    86    1
   107    22    87    1
   108    27    45    1
   109    28    34    1
   110    32    58    1
   111    33    46    2
   112    36    51    1
   113    36    66    1
   114    37    52    1
   115    37    67    1
   116    38    53    1
   117    38    68    1
   118    42    48    1
   119    42    72    1
   120    43    44    2
   121    60    73    1
   122    61    74    1
   123    39    69    1
   124    39    57    1
   125    40    70    1
   126    40    50    1
   127    41    71    1
   128    41    49    1
