@<TRIPOS>MOLECULE
*****
 123 128 0 0 0
SMALL
GASTEIGER

@<TRIPOS>ATOM
     1 C         -4.806839   1.853104   -1.378435 C.3        1 UNL1     0.0009
     2 C         -6.197872   1.547292   -2.565256 C.2        1 UNL1     -0.0787
     3 C         -6.995998   1.963612   -3.699152 C.2        1 UNL1     -0.0649
     4 C         -8.212477   1.092454   -4.491377 C.2        1 UNL1     -0.0542
     5 C         -8.962331   0.970614   -5.687183 C.2        1 UNL1     0.0115
     6 C         -9.29248   1.660781   -7.039216 C.3        1 UNL1     -0.0348
     7 C         -9.73847   -0.403561   -5.980847 C.2        1 UNL1     0.2441
     8 O         -10.943936   -0.534638   -5.818992 O.2        1 UNL1     -0.2702
     9 N         -8.989665   -1.364673   -6.682065 N.am        1 UNL1     -0.2772
     10 C         -8.272223   -2.146911   -5.80645 C.2        1 UNL1     0.1049
     11 C         -7.121702   -1.649623   -5.390244 C.2        1 UNL1     0.0801
     12 C         -8.49406   -3.491374   -3.708702 C.ar        1 UNL1     0.0753
     13 C         -7.359458   -2.769235   -3.219004 C.ar        1 UNL1     0.0305
     14 C         -6.557379   -1.918575   -4.095415 C.2        1 UNL1     0.0924
     15 N         -6.425165   -0.591364   -5.839077 N.pl3        1 UNL1     -0.3170
     16 C         -5.157295   -0.579315   -5.15892 C.3        1 UNL1     0.1275
     17 N         -5.429221   -1.261864   -3.840623 N.2        1 UNL1     -0.2557
     18 C         -4.221628   -1.505292   -5.93015 C.3        1 UNL1     0.0016
     19 C         -4.162347   -1.041695   -7.376924 C.3        1 UNL1     0.0026
     20 N         -3.682239   0.332909   -7.408349 N.3        1 UNL1     -0.3018
     21 C         -4.48402   1.289169   -6.642136 C.3        1 UNL1     0.0026
     22 C         -4.526356   0.806477   -5.191236 C.3        1 UNL1     0.0016
     23 C         -3.305725   0.768478   -8.738447 C.3        1 UNL1     0.0012
     24 C         -4.536317   1.272794   -9.508555 C.3        1 UNL1     -0.0339
     25 C         -4.401763   2.760866   -9.871312 C.3        1 UNL1     -0.0615
     26 C         -4.766704   0.415601   -10.741001 C.3        1 UNL1     -0.0615
     27 C         -9.180514   -4.392761   -2.898517 C.ar        1 UNL1     0.1347
     28 C         -8.80347   -4.683992   -1.599643 C.ar        1 UNL1     0.0342
     29 C         -7.713517   -3.925073   -1.122979 C.ar        1 UNL1     0.1435
     30 C         -7.038596   -2.992292   -1.911408 C.ar        1 UNL1     0.0774
     31 O         -7.158151   -4.170312   0.083848 O.3        1 UNL1     -0.4436
     32 C         -5.854766   -3.572975   0.011391 C.3        1 UNL1     0.3143
     33 C         -5.963629   -2.514218   -1.067217 C.2        1 UNL1     0.2504
     34 C         -9.331742   -5.813995   -0.760523 C.3        1 UNL1     -0.0327
     35 O         -5.631513   -2.886246   1.249055 O.2        1 UNL1     -0.4528
     36 C         -1.883107   -2.993593   1.837287 C.3        1 UNL1     0.0854
     37 C         -0.714633   -2.470863   0.915905 C.3        1 UNL1     0.0236
     38 C         0.290714   -1.438505   1.619652 C.3        1 UNL1     0.1131
     39 C         -0.285303   -0.179607   2.384929 C.3        1 UNL1     0.0200
     40 C         -1.52163   0.720921   1.719359 C.3        1 UNL1     0.0661
     41 C         -1.565883   1.331449   0.137301 C.3        1 UNL1     0.0091
     42 C         -2.985497   1.615301   -0.989431 C.3        1 UNL1     0.0661
     43 C         -8.861325   -3.315438   -5.135735 C.2        1 UNL1     0.2131
     44 O         -9.518383   -4.123831   -5.766221 O.2        1 UNL1     -0.2851
     45 O         -10.301681   -5.020308   -3.437596 O.3        1 UNL1     -0.5056
     46 O         -5.322515   -1.494487   -1.189584 O.2        1 UNL1     -0.2836
     47 C         -5.213072   2.930945   -0.337659 C.3        1 UNL1     -0.0566
     48 O         -2.555794   2.982299   -1.371254 O.3        1 UNL1     -0.3909
     49 C         -0.484611   0.656376   -0.676714 C.3        1 UNL1     -0.0577
     50 O         -2.779666   0.175396   2.062101 O.3        1 UNL1     -0.3910
     51 O         -2.004482   -2.366137   3.093869 O.3        1 UNL1     -0.3753
     52 C         -1.175752   -2.301113   -0.568515 C.3        1 UNL1     -0.0564
     53 O         1.568095   -1.231406   0.859564 O.3        1 UNL1     -0.4608
     54 C         2.782344   -0.922239   1.414492 C.2        1 UNL1     0.3042
     55 O         3.138456   0.161306   1.875961 O.2        1 UNL1     -0.2512
     56 C         3.723517   -2.090585   1.491136 C.3        1 UNL1     0.0332
     57 C         -0.39388   -0.564655   3.933516 C.3        1 UNL1     -0.0567
     58 C         -4.891801   -4.681723   -0.47328 C.3        1 UNL1     0.0210
     59 C         -2.686356   -3.134463   4.084116 C.3        1 UNL1     0.0372
     60 C         -3.234232   -2.970187   1.213528 C.2        1 UNL1     -0.0208
     61 C         -4.405722   -2.562709   1.703749 C.2        1 UNL1     0.0882
     62 H         -5.011918   0.879565   -0.91705 H        1 UNL1     0.0365
     63 H         -6.612059   0.621983   -2.159397 H        1 UNL1     0.0576
     64 H         -6.754927   2.863587   -4.269273 H        1 UNL1     0.0615
     65 H         -8.430652   0.2682   -3.806915 H        1 UNL1     0.0622
     66 H         -1.647779   -4.053761   2.006734 H        1 UNL1     0.0645
     67 H         -0.064623   -3.352815   0.780971 H        1 UNL1     0.0362
     68 H         0.706099   -2.091067   2.402685 H        1 UNL1     0.0741
     69 H         0.505102   0.550296   2.498545 H        1 UNL1     0.0359
     70 H         -1.441339   1.638243   2.333471 H        1 UNL1     0.0600
     71 H         -1.119851   2.331635   0.303554 H        1 UNL1     0.0348
     72 H         -3.409965   1.551426   0.023023 H        1 UNL1     0.0602
     73 H         -3.195686   -3.470571   0.277912 H        1 UNL1     0.0628
     74 H         -4.523563   -1.992429   2.625775 H        1 UNL1     0.1022
     75 H         -8.416392   2.250165   -7.402712 H        1 UNL1     0.0279
     76 H         -9.498783   1.004154   -7.881444 H        1 UNL1     0.0279
     77 H         -10.056174   2.446099   -6.940484 H        1 UNL1     0.0279
     78 H         -8.322687   -0.89894   -7.293873 H        1 UNL1     0.1553
     79 H         -6.56103   -0.178053   -6.743316 H        1 UNL1     0.1484
     80 H         -3.230347   -1.48304   -5.461501 H        1 UNL1     0.0317
     81 H         -4.568912   -2.542843   -5.879816 H        1 UNL1     0.0317
     82 H         -5.139793   -1.13102   -7.873445 H        1 UNL1     0.0428
     83 H         -3.491324   -1.716668   -7.90908 H        1 UNL1     0.0428
     84 H         -4.058402   2.297138   -6.616437 H        1 UNL1     0.0428
     85 H         -5.480876   1.431615   -7.081799 H        1 UNL1     0.0428
     86 H         -5.004495   1.593498   -4.638092 H        1 UNL1     0.0317
     87 H         -3.51209   0.783237   -4.774318 H        1 UNL1     0.0317
     88 H         -2.592853   1.597272   -8.637402 H        1 UNL1     0.0429
     89 H         -2.793729   -0.030714   -9.289742 H        1 UNL1     0.0429
     90 H         -5.428248   1.144954   -8.883792 H        1 UNL1     0.0308
     91 H         -4.254999   2.896308   -10.947052 H        1 UNL1     0.0233
     92 H         -5.288465   3.316669   -9.557542 H        1 UNL1     0.0233
     93 H         -3.549592   3.237158   -9.371525 H        1 UNL1     0.0233
     94 H         -5.801597   0.057398   -10.763865 H        1 UNL1     0.0233
     95 H         -4.594536   1.006759   -11.6448 H        1 UNL1     0.0233
     96 H         -4.100504   -0.451563   -10.75417 H        1 UNL1     0.0233
     97 H         -10.274591   -6.19681   -1.139625 H        1 UNL1     0.0280
     98 H         -8.645607   -6.670786   -0.740947 H        1 UNL1     0.0280
     99 H         -9.491366   -5.463403   0.272289 H        1 UNL1     0.0280
     100 H         -11.061393   -5.009325   -2.882312 H        1 UNL1     0.2922
     101 H         -5.937217   3.614734   -0.780041 H        1 UNL1     0.0236
     102 H         -4.360227   3.458105   0.088653 H        1 UNL1     0.0236
     103 H         -5.735032   2.493243   0.529617 H        1 UNL1     0.0236
     104 H         -1.630847   3.093901   -1.076316 H        1 UNL1     0.2098
     105 H         -0.853796   0.062766   -1.509265 H        1 UNL1     0.0234
     106 H         0.314781   1.318168   -1.009776 H        1 UNL1     0.0234
     107 H         0.0   0.0   0.0 H        1 UNL1     0.0234
     108 H         -2.757764   -0.772862   1.829517 H        1 UNL1     0.2098
     109 H         -2.255682   -2.464595   -0.689914 H        1 UNL1     0.0234
     110 H         -0.901746   -1.330592   -0.996011 H        1 UNL1     0.0234
     111 H         -0.688591   -3.030259   -1.229549 H        1 UNL1     0.0234
     112 H         3.589984   -2.73406   0.616233 H        1 UNL1     0.0342
     113 H         4.761091   -1.774899   1.589247 H        1 UNL1     0.0342
     114 H         3.468645   -2.678498   2.383639 H        1 UNL1     0.0342
     115 H         -1.384546   -0.967334   4.185744 H        1 UNL1     0.0234
     116 H         0.350105   -1.292555   4.263207 H        1 UNL1     0.0234
     117 H         -0.339991   0.306908   4.608361 H        1 UNL1     0.0234
     118 H         -5.254341   -5.17267   -1.393357 H        1 UNL1     0.0309
     119 H         -3.8709   -4.322532   -0.637435 H        1 UNL1     0.0309
     120 H         -4.811034   -5.509534   0.239681 H        1 UNL1     0.0309
     121 H         -2.400589   -4.177009   3.947037 H        1 UNL1     0.0524
     122 H         -2.400881   -2.843986   5.108891 H        1 UNL1     0.0524
     123 H         -3.761112   -3.022599   3.972401 H        1 UNL1     0.0524
@<TRIPOS>BOND
     1     1     2    1
     2     1    42    1
     3     2     3    2
     4     3     4    1
     5     4     5    2
     6     5     7    1
     7     6    75    1
     8     6    76    1
     9     6    77    1
    10     7     9   am
    11     9    10    1
    12    10    11    2
    13    10    43    1
    14    11    14    1
    15    11    15    1
    16    12    13   ar
    17    12    27   ar
    18    12    43    1
    19    13    14    1
    20    13    30   ar
    21    14    17    2
    22    15    16    1
    23    16    17    1
    24    16    18    1
    25    16    22    1
    26    18    19    1
    27    19    20    1
    28    20    21    1
    29    21    22    1
    30    23    24    1
    31    23    88    1
    32    23    89    1
    33    24    25    1
    34    24    26    1
    35    24    90    1
    36    25    91    1
    37    25    92    1
    38    25    93    1
    39    26    94    1
    40    26    95    1
    41    26    96    1
    42    27    28   ar
    43    28    29   ar
    44    29    30   ar
    45    29    31    1
    46    30    33    1
    47    31    32    1
    48    32    33    1
    49    32    35    1
    50    34    97    1
    51    34    98    1
    52    34    99    1
    53    35    61    1
    54    36    37    1
    55    36    60    1
    56    37    38    1
    57    38    39    1
    58    39    40    1
    59    40    41    1
    60    41    42    1
    61    45   100    1
    62    47   101    1
    63    47   102    1
    64    47   103    1
    65    48   104    1
    66    49   105    1
    67    49   106    1
    68    49   107    1
    69    50   108    1
    70    51    59    1
    71    52   109    1
    72    52   110    1
    73    52   111    1
    74    53    54    1
    75    54    55    2
    76    54    56    1
    77    56   112    1
    78    56   113    1
    79    56   114    1
    80    57   115    1
    81    57   116    1
    82    57   117    1
    83    58   118    1
    84    58   119    1
    85    58   120    1
    86    59   121    1
    87    59   122    1
    88    59   123    1
    89    60    61    2
    90     1    47    1
    91     1    62    1
    92     2    63    1
    93     3    64    1
    94     4    65    1
    95     5     6    1
    96     7     8    2
    97     9    78    1
    98    15    79    1
    99    18    80    1
   100    18    81    1
   101    19    82    1
   102    19    83    1
   103    20    23    1
   104    21    84    1
   105    21    85    1
   106    22    86    1
   107    22    87    1
   108    27    45    1
   109    28    34    1
   110    32    58    1
   111    33    46    2
   112    36    51    1
   113    36    66    1
   114    37    52    1
   115    37    67    1
   116    38    53    1
   117    38    68    1
   118    42    48    1
   119    42    72    1
   120    43    44    2
   121    60    73    1
   122    61    74    1
   123    39    69    1
   124    39    57    1
   125    40    70    1
   126    40    50    1
   127    41    71    1
   128    41    49    1
