@<TRIPOS>MOLECULE
*****
 123 128 0 0 0
SMALL
GASTEIGER

@<TRIPOS>ATOM
     1 C         -1.224051   3.171256   -4.176694 C.3        1 UNL1     0.0009
     2 C         -2.340723   3.306439   -5.650399 C.2        1 UNL1     -0.0787
     3 C         -2.532146   3.30658   -7.085461 C.2        1 UNL1     -0.0649
     4 C         -3.992047   3.369272   -7.940515 C.2        1 UNL1     -0.0542
     5 C         -4.621802   3.111363   -9.18308 C.2        1 UNL1     0.0115
     6 C         -4.363983   2.741223   -10.669636 C.3        1 UNL1     -0.0348
     7 C         -6.222457   3.000744   -9.234616 C.2        1 UNL1     0.2441
     8 O         -6.939067   3.903986   -9.643458 O.2        1 UNL1     -0.2702
     9 N         -6.730439   1.706725   -9.025761 N.am        1 UNL1     -0.2772
     10 C         -6.920814   1.476582   -7.682588 C.2        1 UNL1     0.1049
     11 C         -5.855432   1.097604   -7.000268 C.2        1 UNL1     0.0801
     12 C         -7.932896   2.472796   -5.623321 C.ar        1 UNL1     0.0753
     13 C         -6.67667   2.22825   -4.982461 C.ar        1 UNL1     0.0305
     14 C         -5.64156   1.412766   -5.613795 C.2        1 UNL1     0.0924
     15 N         -4.649589   0.693728   -7.435416 N.pl3        1 UNL1     -0.3170
     16 C         -3.904254   0.228916   -6.29582 C.3        1 UNL1     0.1275
     17 N         -4.471277   1.004174   -5.131697 N.2        1 UNL1     -0.2557
     18 C         -4.293784   -1.227929   -6.064368 C.3        1 UNL1     0.0016
     19 C         -4.037314   -2.009003   -7.343327 C.3        1 UNL1     0.0026
     20 N         -2.627153   -1.892096   -7.688012 N.3        1 UNL1     -0.3018
     21 C         -2.143204   -0.522091   -7.870354 C.3        1 UNL1     0.0026
     22 C         -2.40661   0.243043   -6.572247 C.3        1 UNL1     0.0016
     23 C         -2.216689   -2.833436   -8.710774 C.3        1 UNL1     0.0012
     24 C         -1.076179   -2.246066   -9.556937 C.3        1 UNL1     -0.0339
     25 C         -1.164386   -2.710924   -11.019874 C.3        1 UNL1     -0.0615
     26 C         -1.076039   -0.730966   -9.45087 C.3        1 UNL1     -0.0615
     27 C         -8.958786   3.148296   -4.966535 C.ar        1 UNL1     0.1347
     28 C         -8.860307   3.590009   -3.659155 C.ar        1 UNL1     0.0342
     29 C         -7.59753   3.381449   -3.064965 C.ar        1 UNL1     0.1435
     30 C         -6.548487   2.738412   -3.723168 C.ar        1 UNL1     0.0774
     31 O         -7.378366   3.65639   -1.760595 O.3        1 UNL1     -0.4436
     32 C         -6.205495   2.900665   -1.422769 C.3        1 UNL1     0.3143
     33 C         -5.489056   2.671973   -2.738303 C.2        1 UNL1     0.2504
     34 C         -9.994731   4.093386   -2.810748 C.3        1 UNL1     -0.0327
     35 O         -5.364755   3.749807   -0.631968 O.2        1 UNL1     -0.4528
     36 C         -3.446793   1.442029   1.692612 C.3        1 UNL1     0.0854
     37 C         -2.505126   0.227787   1.337078 C.3        1 UNL1     0.0236
     38 C         -1.028135   0.314196   1.955768 C.3        1 UNL1     0.1131
     39 C         -0.170859   1.629215   1.760646 C.3        1 UNL1     0.0200
     40 C         -0.124628   2.395667   0.279818 C.3        1 UNL1     0.0661
     41 C         0.187144   1.654   -1.213614 C.3        1 UNL1     0.0091
     42 C         -0.437554   2.050018   -2.892401 C.3        1 UNL1     0.0661
     43 C         -8.138853   1.90478   -6.978754 C.2        1 UNL1     0.2131
     44 O         -9.237183   1.696192   -7.461349 O.2        1 UNL1     -0.2851
     45 O         -10.133582   3.385325   -5.677246 O.3        1 UNL1     -0.5056
     46 O         -4.306842   2.496712   -2.931969 O.2        1 UNL1     -0.2836
     47 C         -0.400493   4.475654   -4.002684 C.3        1 UNL1     -0.0566
     48 O         0.899566   1.981955   -3.530049 O.3        1 UNL1     -0.3909
     49 C         0.080744   0.154691   -1.045548 C.3        1 UNL1     -0.0577
     50 O         -1.198863   3.305369   0.152602 O.3        1 UNL1     -0.3910
     51 O         -2.832562   2.524874   2.354124 O.3        1 UNL1     -0.3753
     52 C         -2.771555   -0.312023   -0.106033 C.3        1 UNL1     -0.0564
     53 O         -0.27898   -0.985252   1.905486 O.3        1 UNL1     -0.4608
     54 C         0.913785   -1.240084   2.530228 C.2        1 UNL1     0.3042
     55 O         2.03197   -1.277712   2.018286 O.2        1 UNL1     -0.2512
     56 C         0.786111   -1.432676   4.014587 C.3        1 UNL1     0.0332
     57 C         -0.374508   2.535338   3.062815 C.3        1 UNL1     -0.0567
     58 C         -6.7027   1.539699   -0.882318 C.3        1 UNL1     0.0210
     59 C         -3.180629   2.661463   3.731099 C.3        1 UNL1     0.0372
     60 C         -4.198668   2.012681   0.541873 C.2        1 UNL1     -0.0208
     61 C         -4.40323   3.281884   0.186876 C.2        1 UNL1     0.0882
     62 H         -2.102146   3.266496   -3.526625 H        1 UNL1     0.0365
     63 H         -3.292632   3.530875   -5.164634 H        1 UNL1     0.0576
     64 H         -1.710337   3.093065   -7.772591 H        1 UNL1     0.0615
     65 H         -4.724603   3.663873   -7.184171 H        1 UNL1     0.0622
     66 H         -4.204007   1.016175   2.365903 H        1 UNL1     0.0645
     67 H         -2.931723   -0.617455   1.904652 H        1 UNL1     0.0362
     68 H         -1.275698   0.283679   3.027824 H        1 UNL1     0.0741
     69 H         0.870258   1.395668   1.939364 H        1 UNL1     0.0359
     70 H         0.765487   3.037307   0.424915 H        1 UNL1     0.0600
     71 H         1.285128   1.788604   -1.270793 H        1 UNL1     0.0348
     72 H         -0.59449   2.955846   -2.288943 H        1 UNL1     0.0602
     73 H         -4.710983   1.231425   0.03747 H        1 UNL1     0.0628
     74 H         -3.874297   4.13457   0.613952 H        1 UNL1     0.1022
     75 H         -5.291689   2.333232   -11.138612 H        1 UNL1     0.0279
     76 H         -4.105751   3.561195   -11.335993 H        1 UNL1     0.0279
     77 H         -3.672769   1.893245   -10.78303 H        1 UNL1     0.0279
     78 H         -6.060991   1.017968   -9.362703 H        1 UNL1     0.1553
     79 H         -4.474096   0.369789   -8.368796 H        1 UNL1     0.1484
     80 H         -3.707464   -1.626155   -5.227463 H        1 UNL1     0.0317
     81 H         -5.347278   -1.310249   -5.776225 H        1 UNL1     0.0317
     82 H         -4.676545   -1.660966   -8.168049 H        1 UNL1     0.0428
     83 H         -4.323489   -3.044538   -7.156721 H        1 UNL1     0.0428
     84 H         -1.065437   -0.457809   -8.049511 H        1 UNL1     0.0428
     85 H         -2.589455   -0.04512   -8.753913 H        1 UNL1     0.0428
     86 H         -1.923153   1.194609   -6.693824 H        1 UNL1     0.0317
     87 H         -1.852927   -0.219194   -5.745889 H        1 UNL1     0.0317
     88 H         -1.850801   -3.740845   -8.212749 H        1 UNL1     0.0429
     89 H         -3.064176   -3.13203   -9.341156 H        1 UNL1     0.0429
     90 H         -0.115653   -2.575371   -9.143222 H        1 UNL1     0.0308
     91 H         -2.185022   -2.623233   -11.404212 H        1 UNL1     0.0233
     92 H         -0.49166   -2.126664   -11.652083 H        1 UNL1     0.0233
     93 H         -0.866828   -3.759246   -11.143627 H        1 UNL1     0.0233
     94 H         -0.557152   -0.292245   -10.310007 H        1 UNL1     0.0233
     95 H         -2.103479   -0.35636   -9.450304 H        1 UNL1     0.0233
     96 H         -0.577297   -0.394934   -8.537466 H        1 UNL1     0.0233
     97 H         -9.801714   5.088424   -2.421037 H        1 UNL1     0.0280
     98 H         -10.932644   4.168855   -3.376327 H        1 UNL1     0.0280
     99 H         -10.148329   3.412051   -1.957937 H        1 UNL1     0.0280
     100 H         -10.637148   4.117792   -5.368156 H        1 UNL1     0.2922
     101 H         -0.807323   5.060025   -3.177664 H        1 UNL1     0.0236
     102 H         -0.324189   5.05988   -4.919112 H        1 UNL1     0.0236
     103 H         0.643482   4.270664   -3.712361 H        1 UNL1     0.0236
     104 H         1.552518   2.311529   -2.881971 H        1 UNL1     0.2098
     105 H         -0.793073   -0.289075   -1.516001 H        1 UNL1     0.0234
     106 H         0.978945   -0.399019   -1.318618 H        1 UNL1     0.0234
     107 H         0.0   -0.0   0.0 H        1 UNL1     0.0234
     108 H         -0.821749   4.205709   0.183297 H        1 UNL1     0.2098
     109 H         -1.85498   -0.678907   -0.588731 H        1 UNL1     0.0234
     110 H         -3.540221   -1.091651   -0.138833 H        1 UNL1     0.0234
     111 H         -3.161214   0.473943   -0.766616 H        1 UNL1     0.0234
     112 H         1.772751   -1.610685   4.452994 H        1 UNL1     0.0342
     113 H         0.290938   -0.590567   4.495731 H        1 UNL1     0.0342
     114 H         0.172099   -2.32615   4.193077 H        1 UNL1     0.0342
     115 H         0.20274   3.468439   3.005419 H        1 UNL1     0.0234
     116 H         -1.414483   2.804095   3.258439 H        1 UNL1     0.0234
     117 H         0.039394   2.084866   3.981347 H        1 UNL1     0.0234
     118 H         -5.936937   0.750278   -0.979415 H        1 UNL1     0.0309
     119 H         -7.037962   1.587359   0.15861 H        1 UNL1     0.0309
     120 H         -7.548088   1.143356   -1.455326 H        1 UNL1     0.0309
     121 H         -3.052909   3.709395   4.001064 H        1 UNL1     0.0524
     122 H         -4.232837   2.394534   3.925121 H        1 UNL1     0.0524
     123 H         -2.539132   2.035419   4.344813 H        1 UNL1     0.0524
@<TRIPOS>BOND
     1     1     2    1
     2     1    42    1
     3     2     3    2
     4     3     4    1
     5     4     5    2
     6     5     7    1
     7     6    75    1
     8     6    76    1
     9     6    77    1
    10     7     9   am
    11     9    10    1
    12    10    11    2
    13    10    43    1
    14    11    14    1
    15    11    15    1
    16    12    13   ar
    17    12    27   ar
    18    12    43    1
    19    13    14    1
    20    13    30   ar
    21    14    17    2
    22    15    16    1
    23    16    17    1
    24    16    18    1
    25    16    22    1
    26    18    19    1
    27    19    20    1
    28    20    21    1
    29    21    22    1
    30    23    24    1
    31    23    88    1
    32    23    89    1
    33    24    25    1
    34    24    26    1
    35    24    90    1
    36    25    91    1
    37    25    92    1
    38    25    93    1
    39    26    94    1
    40    26    95    1
    41    26    96    1
    42    27    28   ar
    43    28    29   ar
    44    29    30   ar
    45    29    31    1
    46    30    33    1
    47    31    32    1
    48    32    33    1
    49    32    35    1
    50    34    97    1
    51    34    98    1
    52    34    99    1
    53    35    61    1
    54    36    37    1
    55    36    60    1
    56    37    38    1
    57    38    39    1
    58    39    40    1
    59    40    41    1
    60    41    42    1
    61    45   100    1
    62    47   101    1
    63    47   102    1
    64    47   103    1
    65    48   104    1
    66    49   105    1
    67    49   106    1
    68    49   107    1
    69    50   108    1
    70    51    59    1
    71    52   109    1
    72    52   110    1
    73    52   111    1
    74    53    54    1
    75    54    55    2
    76    54    56    1
    77    56   112    1
    78    56   113    1
    79    56   114    1
    80    57   115    1
    81    57   116    1
    82    57   117    1
    83    58   118    1
    84    58   119    1
    85    58   120    1
    86    59   121    1
    87    59   122    1
    88    59   123    1
    89    60    61    2
    90     1    47    1
    91     1    62    1
    92     2    63    1
    93     3    64    1
    94     4    65    1
    95     5     6    1
    96     7     8    2
    97     9    78    1
    98    15    79    1
    99    18    80    1
   100    18    81    1
   101    19    82    1
   102    19    83    1
   103    20    23    1
   104    21    84    1
   105    21    85    1
   106    22    86    1
   107    22    87    1
   108    27    45    1
   109    28    34    1
   110    32    58    1
   111    33    46    2
   112    36    51    1
   113    36    66    1
   114    37    52    1
   115    37    67    1
   116    38    53    1
   117    38    68    1
   118    42    48    1
   119    42    72    1
   120    43    44    2
   121    60    73    1
   122    61    74    1
   123    39    69    1
   124    39    57    1
   125    40    70    1
   126    40    50    1
   127    41    71    1
   128    41    49    1
