@<TRIPOS>MOLECULE
*****
 123 128 0 0 0
SMALL
GASTEIGER

@<TRIPOS>ATOM
     1 C         4.329772   2.383999   -2.359851 C.3        1 UNL1     0.0009
     2 C         5.841229   2.135178   -3.40418 C.2        1 UNL1     -0.0787
     3 C         7.276223   1.982724   -3.52078 C.2        1 UNL1     -0.0649
     4 C         8.175302   1.626417   -4.910405 C.2        1 UNL1     -0.0542
     5 C         9.40967   1.132389   -5.399639 C.2        1 UNL1     0.0115
     6 C         10.852096   0.726751   -4.989531 C.3        1 UNL1     -0.0348
     7 C         9.497971   0.633799   -6.92299 C.2        1 UNL1     0.2441
     8 O         10.001263   1.303719   -7.814298 O.2        1 UNL1     -0.2702
     9 N         9.196619   -0.725619   -7.116182 N.am        1 UNL1     -0.2772
     10 C         7.844983   -0.89496   -7.310411 C.2        1 UNL1     0.1049
     11 C         7.102959   -0.952982   -6.219423 C.2        1 UNL1     0.0801
     12 C         5.90609   -0.024   -8.629296 C.ar        1 UNL1     0.0753
     13 C         5.211073   0.091189   -7.383387 C.ar        1 UNL1     0.0305
     14 C         5.742024   -0.493667   -6.154125 C.2        1 UNL1     0.0924
     15 N         7.467907   -1.083773   -4.932475 N.pl3        1 UNL1     -0.3170
     16 C         6.272468   -1.268516   -4.153343 C.3        1 UNL1     0.1275
     17 N         5.193942   -0.569744   -4.944685 N.2        1 UNL1     -0.2557
     18 C         5.931603   -2.755082   -4.193807 C.3        1 UNL1     0.0016
     19 C         7.132993   -3.543213   -3.696715 C.3        1 UNL1     0.0026
     20 N         7.445389   -3.114014   -2.340535 N.3        1 UNL1     -0.3018
     21 C         7.727364   -1.684948   -2.1901 C.3        1 UNL1     0.0026
     22 C         6.505771   -0.912499   -2.691026 C.3        1 UNL1     0.0016
     23 C         8.373766   -4.000915   -1.668103 C.3        1 UNL1     0.0012
     24 C         7.698085   -5.342598   -1.343915 C.3        1 UNL1     -0.0339
     25 C         8.007252   -6.401293   -2.415195 C.3        1 UNL1     -0.0615
     26 C         8.109555   -5.811752   0.040775 C.3        1 UNL1     -0.0615
     27 C         5.33784   0.429554   -9.817361 C.ar        1 UNL1     0.1347
     28 C         4.069579   0.977484   -9.890431 C.ar        1 UNL1     0.0342
     29 C         3.423863   1.125619   -8.644529 C.ar        1 UNL1     0.1435
     30 C         3.995566   0.708973   -7.441706 C.ar        1 UNL1     0.0774
     31 O         2.141203   1.54123   -8.560528 O.3        1 UNL1     -0.4436
     32 C         1.70779   1.11929   -7.258609 C.3        1 UNL1     0.3143
     33 C         2.978427   0.974247   -6.445802 C.2        1 UNL1     0.2504
     34 C         3.299227   1.25242   -11.151806 C.3        1 UNL1     -0.0327
     35 O         0.966664   2.202942   -6.684428 O.2        1 UNL1     -0.4528
     36 C         -1.59675   0.60712   -4.384352 C.3        1 UNL1     0.0854
     37 C         -1.371097   -0.365712   -3.163613 C.3        1 UNL1     0.0236
     38 C         -2.022787   0.121479   -1.781698 C.3        1 UNL1     0.1131
     39 C         -1.743444   1.586846   -1.25545 C.3        1 UNL1     0.0200
     40 C         -0.205781   2.229895   -1.322654 C.3        1 UNL1     0.0661
     41 C         1.210937   1.477409   -0.771033 C.3        1 UNL1     0.0091
     42 C         2.93424   1.584919   -1.390767 C.3        1 UNL1     0.0661
     43 C         7.214779   -0.723708   -8.627935 C.2        1 UNL1     0.2131
     44 O         7.709784   -1.227287   -9.619962 O.2        1 UNL1     -0.2851
     45 O         6.099458   0.32165   -10.979141 O.3        1 UNL1     -0.5056
     46 O         3.122595   1.076764   -5.248071 O.2        1 UNL1     -0.2836
     47 C         4.241511   3.858245   -1.88153 C.3        1 UNL1     -0.0566
     48 O         3.525129   1.795803   -0.04708 O.3        1 UNL1     -0.3909
     49 C         0.921497   0.013663   -0.523715 C.3        1 UNL1     -0.0577
     50 O         0.027846   2.840274   -2.575881 O.3        1 UNL1     -0.3910
     51 O         -2.183054   1.852411   -4.079508 O.3        1 UNL1     -0.3753
     52 C         0.029027   -1.059272   -3.223424 C.3        1 UNL1     -0.0564
     53 O         -2.102748   -0.957824   -0.741968 O.3        1 UNL1     -0.4608
     54 C         -2.249274   -0.75469   0.605324 C.2        1 UNL1     0.3042
     55 O         -1.421048   -0.974624   1.488222 O.2        1 UNL1     -0.2512
     56 C         -3.568332   -0.141876   0.981171 C.3        1 UNL1     0.0332
     57 C         -2.959044   2.510462   -1.732341 C.3        1 UNL1     -0.0567
     58 C         1.070241   -0.277738   -7.441299 C.3        1 UNL1     0.0210
     59 C         -2.910329   2.450922   -5.151292 C.3        1 UNL1     0.0372
     60 C         -0.38119   0.891843   -5.194604 C.2        1 UNL1     -0.0208
     61 C         0.084225   2.04382   -5.679456 C.2        1 UNL1     0.0882
     62 H         3.71553   2.311525   -3.265482 H        1 UNL1     0.0365
     63 H         5.40356   2.157643   -4.404386 H        1 UNL1     0.0576
     64 H         7.919136   1.924402   -2.639662 H        1 UNL1     0.0615
     65 H         7.467635   1.789926   -5.727691 H        1 UNL1     0.0622
     66 H         -2.281091   0.061551   -5.049241 H        1 UNL1     0.0645
     67 H         -1.994669   -1.244722   -3.40248 H        1 UNL1     0.0362
     68 H         -3.086058   0.111333   -2.066083 H        1 UNL1     0.0741
     69 H         -1.970999   1.626359   -0.198537 H        1 UNL1     0.0359
     70 H         -0.322463   3.076983   -0.619881 H        1 UNL1     0.0600
     71 H         1.247436   1.869383   0.264332 H        1 UNL1     0.0348
     72 H         2.41325   2.467851   -1.788656 H        1 UNL1     0.0602
     73 H         0.07084   -0.025376   -5.480305 H        1 UNL1     0.0628
     74 H         -0.2853   3.028443   -5.391001 H        1 UNL1     0.1022
     75 H         10.991304   0.835267   -3.886862 H        1 UNL1     0.0279
     76 H         11.131314   -0.310586   -5.159936 H        1 UNL1     0.0279
     77 H         11.614366   1.4204   -5.373584 H        1 UNL1     0.0279
     78 H         9.455456   -1.254675   -6.286013 H        1 UNL1     0.1553
     79 H         8.365549   -1.423717   -4.639881 H        1 UNL1     0.1484
     80 H         5.047817   -2.936338   -3.570241 H        1 UNL1     0.0317
     81 H         5.668121   -3.068603   -5.209648 H        1 UNL1     0.0317
     82 H         8.001983   -3.422426   -4.360176 H        1 UNL1     0.0428
     83 H         6.868971   -4.60049   -3.735554 H        1 UNL1     0.0428
     84 H         7.880081   -1.37493   -1.15165 H        1 UNL1     0.0428
     85 H         8.66015   -1.397037   -2.694416 H        1 UNL1     0.0428
     86 H         6.692319   0.116152   -2.443914 H        1 UNL1     0.0317
     87 H         5.628091   -1.164366   -2.083294 H        1 UNL1     0.0317
     88 H         9.217468   -4.18903   -2.344915 H        1 UNL1     0.0429
     89 H         8.785068   -3.535777   -0.762978 H        1 UNL1     0.0429
     90 H         6.61226   -5.196661   -1.300341 H        1 UNL1     0.0308
     91 H         9.085297   -6.551209   -2.526758 H        1 UNL1     0.0233
     92 H         7.536765   -7.354601   -2.163292 H        1 UNL1     0.0233
     93 H         7.621129   -6.121247   -3.402777 H        1 UNL1     0.0233
     94 H         7.789245   -6.847159   0.199429 H        1 UNL1     0.0233
     95 H         9.198182   -5.776847   0.138934 H        1 UNL1     0.0233
     96 H         7.66456   -5.188842   0.821755 H        1 UNL1     0.0233
     97 H         2.30621   1.640895   -10.946293 H        1 UNL1     0.0280
     98 H         3.791723   2.004569   -11.781866 H        1 UNL1     0.0280
     99 H         3.192675   0.319884   -11.729836 H        1 UNL1     0.0280
     100 H         5.674359   -0.132676   -11.685186 H        1 UNL1     0.2922
     101 H         3.322284   4.006645   -1.315266 H        1 UNL1     0.0236
     102 H         4.343216   4.578785   -2.69237 H        1 UNL1     0.0236
     103 H         5.049384   4.113671   -1.175633 H        1 UNL1     0.0236
     104 H         3.61622   2.759472   0.087142 H        1 UNL1     0.2098
     105 H         0.799672   -0.578909   -1.426947 H        1 UNL1     0.0234
     106 H         1.613099   -0.478045   0.16027 H        1 UNL1     0.0234
     107 H         0.0   0.0   0.0 H        1 UNL1     0.0234
     108 H         0.003792   2.135032   -3.251028 H        1 UNL1     0.2098
     109 H         0.853372   -0.332537   -3.228117 H        1 UNL1     0.0234
     110 H         0.184724   -1.784766   -2.417719 H        1 UNL1     0.0234
     111 H         0.148887   -1.650629   -4.140963 H        1 UNL1     0.0234
     112 H         -3.612067   0.012421   2.063588 H        1 UNL1     0.0342
     113 H         -3.755213   0.787972   0.4461 H        1 UNL1     0.0342
     114 H         -4.36473   -0.84825   0.709233 H        1 UNL1     0.0342
     115 H         -3.922217   2.149437   -1.346144 H        1 UNL1     0.0234
     116 H         -2.860853   3.558373   -1.442015 H        1 UNL1     0.0234
     117 H         -3.138644   2.473973   -2.820621 H        1 UNL1     0.0234
     118 H         0.019806   -0.21364   -7.775191 H        1 UNL1     0.0309
     119 H         1.627578   -0.917191   -8.133163 H        1 UNL1     0.0309
     120 H         1.0027   -0.835233   -6.500691 H        1 UNL1     0.0309
     121 H         -2.207388   2.638352   -5.962526 H        1 UNL1     0.0524
     122 H         -3.699867   1.787996   -5.542696 H        1 UNL1     0.0524
     123 H         -3.362544   3.382955   -4.824321 H        1 UNL1     0.0524
@<TRIPOS>BOND
     1     1     2    1
     2     1    42    1
     3     2     3    2
     4     3     4    1
     5     4     5    2
     6     5     7    1
     7     6    75    1
     8     6    76    1
     9     6    77    1
    10     7     9   am
    11     9    10    1
    12    10    11    2
    13    10    43    1
    14    11    14    1
    15    11    15    1
    16    12    13   ar
    17    12    27   ar
    18    12    43    1
    19    13    14    1
    20    13    30   ar
    21    14    17    2
    22    15    16    1
    23    16    17    1
    24    16    18    1
    25    16    22    1
    26    18    19    1
    27    19    20    1
    28    20    21    1
    29    21    22    1
    30    23    24    1
    31    23    88    1
    32    23    89    1
    33    24    25    1
    34    24    26    1
    35    24    90    1
    36    25    91    1
    37    25    92    1
    38    25    93    1
    39    26    94    1
    40    26    95    1
    41    26    96    1
    42    27    28   ar
    43    28    29   ar
    44    29    30   ar
    45    29    31    1
    46    30    33    1
    47    31    32    1
    48    32    33    1
    49    32    35    1
    50    34    97    1
    51    34    98    1
    52    34    99    1
    53    35    61    1
    54    36    37    1
    55    36    60    1
    56    37    38    1
    57    38    39    1
    58    39    40    1
    59    40    41    1
    60    41    42    1
    61    45   100    1
    62    47   101    1
    63    47   102    1
    64    47   103    1
    65    48   104    1
    66    49   105    1
    67    49   106    1
    68    49   107    1
    69    50   108    1
    70    51    59    1
    71    52   109    1
    72    52   110    1
    73    52   111    1
    74    53    54    1
    75    54    55    2
    76    54    56    1
    77    56   112    1
    78    56   113    1
    79    56   114    1
    80    57   115    1
    81    57   116    1
    82    57   117    1
    83    58   118    1
    84    58   119    1
    85    58   120    1
    86    59   121    1
    87    59   122    1
    88    59   123    1
    89    60    61    2
    90     1    47    1
    91     1    62    1
    92     2    63    1
    93     3    64    1
    94     4    65    1
    95     5     6    1
    96     7     8    2
    97     9    78    1
    98    15    79    1
    99    18    80    1
   100    18    81    1
   101    19    82    1
   102    19    83    1
   103    20    23    1
   104    21    84    1
   105    21    85    1
   106    22    86    1
   107    22    87    1
   108    27    45    1
   109    28    34    1
   110    32    58    1
   111    33    46    2
   112    36    51    1
   113    36    66    1
   114    37    52    1
   115    37    67    1
   116    38    53    1
   117    38    68    1
   118    42    48    1
   119    42    72    1
   120    43    44    2
   121    60    73    1
   122    61    74    1
   123    39    69    1
   124    39    57    1
   125    40    70    1
   126    40    50    1
   127    41    71    1
   128    41    49    1
