@<TRIPOS>MOLECULE
*****
 123 128 0 0 0
SMALL
GASTEIGER

@<TRIPOS>ATOM
     1 C         5.080712   1.923209   0.697785 C.3        1 UNL1     0.0009
     2 C         6.516039   2.792943   -0.089892 C.2        1 UNL1     -0.0787
     3 C         7.822918   2.750691   -0.711445 C.2        1 UNL1     -0.0649
     4 C         8.68097   4.027795   -1.417923 C.2        1 UNL1     -0.0542
     5 C         9.721704   4.371038   -2.315773 C.2        1 UNL1     0.0115
     6 C         10.901008   3.799584   -3.150042 C.3        1 UNL1     -0.0348
     7 C         9.784522   5.866009   -2.897241 C.2        1 UNL1     0.2441
     8 O         10.564701   6.710397   -2.479085 O.2        1 UNL1     -0.2702
     9 N         9.068346   6.064426   -4.090503 N.am        1 UNL1     -0.2772
     10 C         7.762438   6.400407   -3.816566 C.2        1 UNL1     0.1049
     11 C         6.942576   5.395161   -3.568514 C.2        1 UNL1     0.0801
     12 C         6.35893   7.937803   -2.429513 C.ar        1 UNL1     0.0753
     13 C         5.625934   6.776827   -2.025209 C.ar        1 UNL1     0.0305
     14 C         5.812102   5.486308   -2.684717 C.2        1 UNL1     0.0924
     15 N         7.118415   4.07401   -3.742209 N.pl3        1 UNL1     -0.3170
     16 C         5.860834   3.425331   -3.481519 C.3        1 UNL1     0.1275
     17 N         5.156877   4.342003   -2.511013 N.2        1 UNL1     -0.2557
     18 C         5.050707   3.473768   -4.773437 C.3        1 UNL1     0.0016
     19 C         5.868384   2.834556   -5.884472 C.3        1 UNL1     0.0026
     20 N         6.174448   1.461068   -5.509126 N.3        1 UNL1     -0.3018
     21 C         6.899687   1.308587   -4.246135 C.3        1 UNL1     0.0026
     22 C         6.058208   1.953494   -3.143456 C.3        1 UNL1     0.0016
     23 C         6.686361   0.675201   -6.614116 C.3        1 UNL1     0.0012
     24 C         5.57537   0.4002   -7.639704 C.3        1 UNL1     -0.0339
     25 C         5.615983   1.411152   -8.797453 C.3        1 UNL1     -0.0615
     26 C         5.673026   -1.029655   -8.142456 C.3        1 UNL1     -0.0615
     27 C         6.090177   9.188878   -1.879331 C.ar        1 UNL1     0.1347
     28 C         5.089349   9.409239   -0.949905 C.ar        1 UNL1     0.0342
     29 C         4.413565   8.243574   -0.530734 C.ar        1 UNL1     0.1435
     30 C         4.696413   6.978168   -1.046451 C.ar        1 UNL1     0.0774
     31 O         3.340214   8.306822   0.287145 O.3        1 UNL1     -0.4436
     32 C         2.668759   7.05153   0.102044 C.3        1 UNL1     0.3143
     33 C         3.73499   6.103417   -0.408296 C.2        1 UNL1     0.2504
     34 C         4.578606   10.751598   -0.505704 C.3        1 UNL1     -0.0327
     35 O         2.2787   6.581868   1.398394 O.2        1 UNL1     -0.4528
     36 C         -0.87697   4.542215   0.8602 C.3        1 UNL1     0.0854
     37 C         -1.105413   3.285711   -0.065291 C.3        1 UNL1     0.0236
     38 C         -1.687102   1.992037   0.682899 C.3        1 UNL1     0.1131
     39 C         -0.988213   1.467002   2.001293 C.3        1 UNL1     0.0200
     40 C         0.674719   1.37988   2.09878 C.3        1 UNL1     0.0661
     41 C         1.701065   0.663866   0.953551 C.3        1 UNL1     0.0091
     42 C         3.413   1.095529   0.455207 C.3        1 UNL1     0.0661
     43 C         7.354095   7.781418   -3.519215 C.2        1 UNL1     0.2131
     44 O         7.746028   8.704196   -4.210308 O.2        1 UNL1     -0.2851
     45 O         6.880036   10.25917   -2.294104 O.3        1 UNL1     -0.5056
     46 O         3.789769   4.899319   -0.294276 O.2        1 UNL1     -0.2836
     47 C         5.442227   1.485741   2.142746 C.3        1 UNL1     -0.0566
     48 O         3.908985   -0.29987   0.532516 O.3        1 UNL1     -0.3909
     49 C         0.919246   0.42114   -0.318195 C.3        1 UNL1     -0.0577
     50 O         1.216707   2.612016   2.529841 O.3        1 UNL1     -0.3910
     51 O         -1.04227   4.326631   2.243541 O.3        1 UNL1     -0.3753
     52 C         -0.016563   3.180358   -1.182545 C.3        1 UNL1     -0.0564
     53 O         -2.220371   0.946448   -0.252352 O.3        1 UNL1     -0.4608
     54 C         -2.419198   -0.372926   0.060138 C.2        1 UNL1     0.3042
     55 O         -1.799667   -1.344298   -0.371667 O.2        1 UNL1     -0.2512
     56 C         -3.489059   -0.59202   1.091695 C.3        1 UNL1     0.0332
     57 C         -1.776116   2.090284   3.245842 C.3        1 UNL1     -0.0567
     58 C         1.623633   7.275146   -1.015649 C.3        1 UNL1     0.0210
     59 C         -1.423164   5.482123   2.988941 C.3        1 UNL1     0.0372
     60 C         0.435701   5.221577   0.685492 C.2        1 UNL1     -0.0208
     61 C         1.301712   5.675356   1.592605 C.2        1 UNL1     0.0882
     62 H         4.566925   2.888396   0.782332 H        1 UNL1     0.0365
     63 H         6.208532   3.834865   0.021049 H        1 UNL1     0.0576
     64 H         8.322471   1.804247   -0.930069 H        1 UNL1     0.0615
     65 H         8.149522   4.919825   -1.07539 H        1 UNL1     0.0622
     66 H         -1.636827   5.266583   0.534692 H        1 UNL1     0.0645
     67 H         -1.959848   3.573637   -0.702157 H        1 UNL1     0.0362
     68 H         -2.660902   2.389506   1.007326 H        1 UNL1     0.0741
     69 H         -1.289682   0.441859   2.170432 H        1 UNL1     0.0359
     70 H         0.779613   0.710307   2.97384 H        1 UNL1     0.0600
     71 H         1.766576   -0.361626   1.367112 H        1 UNL1     0.0348
     72 H         3.255744   1.564375   1.437434 H        1 UNL1     0.0602
     73 H         0.582245   5.438981   -0.343347 H        1 UNL1     0.0628
     74 H         1.254723   5.447591   2.65804 H        1 UNL1     0.1022
     75 H         10.979932   2.694334   -3.011379 H        1 UNL1     0.0279
     76 H         10.821889   3.89505   -4.230641 H        1 UNL1     0.0279
     77 H         11.882545   4.134646   -2.783956 H        1 UNL1     0.0279
     78 H         9.055921   5.201091   -4.629554 H        1 UNL1     0.1553
     79 H         7.819645   3.679548   -4.341882 H        1 UNL1     0.1484
     80 H         4.10158   2.946073   -4.620265 H        1 UNL1     0.0317
     81 H         4.796437   4.505916   -5.037387 H        1 UNL1     0.0317
     82 H         6.787343   3.402339   -6.091956 H        1 UNL1     0.0428
     83 H         5.272908   2.881339   -6.796761 H        1 UNL1     0.0428
     84 H         7.046703   0.26588   -3.947872 H        1 UNL1     0.0428
     85 H         7.918837   1.71451   -4.308394 H        1 UNL1     0.0428
     86 H         6.551554   1.707525   -2.221449 H        1 UNL1     0.0317
     87 H         5.092852   1.439516   -3.059728 H        1 UNL1     0.0317
     88 H         7.480182   1.253038   -7.105286 H        1 UNL1     0.0429
     89 H         7.140317   -0.259966   -6.261754 H        1 UNL1     0.0429
     90 H         4.600923   0.477144   -7.142968 H        1 UNL1     0.0308
     91 H         6.58831   1.40255   -9.299058 H        1 UNL1     0.0233
     92 H         4.83354   1.193288   -9.528156 H        1 UNL1     0.0233
     93 H         5.441259   2.439916   -8.459887 H        1 UNL1     0.0233
     94 H         5.013117   -1.172658   -9.004956 H        1 UNL1     0.0233
     95 H         6.696661   -1.244292   -8.461931 H        1 UNL1     0.0233
     96 H         5.387872   -1.745773   -7.366679 H        1 UNL1     0.0233
     97 H         3.756375   10.66222   0.197985 H        1 UNL1     0.0280
     98 H         5.351001   11.339072   0.007654 H        1 UNL1     0.0280
     99 H         4.223921   11.319682   -1.381247 H        1 UNL1     0.0280
     100 H         6.397686   10.998164   -2.62098 H        1 UNL1     0.2922
     101 H         4.578613   1.013958   2.610984 H        1 UNL1     0.0236
     102 H         5.843397   2.29748   2.748656 H        1 UNL1     0.0236
     103 H         6.226473   0.710528   2.156765 H        1 UNL1     0.0236
     104 H         4.301964   -0.424559   1.418513 H        1 UNL1     0.2098
     105 H         0.694353   1.320661   -0.88573 H        1 UNL1     0.0234
     106 H         1.339269   -0.342984   -0.972123 H        1 UNL1     0.0234
     107 H         0.0   -0.0   0.0 H        1 UNL1     0.0234
     108 H         1.019337   3.27335   1.838863 H        1 UNL1     0.2098
     109 H         0.997913   3.097428   -0.76821 H        1 UNL1     0.0234
     110 H         -0.195405   2.356189   -1.881475 H        1 UNL1     0.0234
     111 H         -0.004582   4.073406   -1.821503 H        1 UNL1     0.0234
     112 H         -3.590962   -1.661226   1.300883 H        1 UNL1     0.0342
     113 H         -3.29772   -0.031605   2.005571 H        1 UNL1     0.0342
     114 H         -4.442906   -0.237514   0.677368 H        1 UNL1     0.0342
     115 H         -2.836783   1.803643   3.242761 H        1 UNL1     0.0234
     116 H         -1.363402   1.811291   4.217376 H        1 UNL1     0.0234
     117 H         -1.852659   3.190699   3.211639 H        1 UNL1     0.0234
     118 H         0.691292   7.721867   -0.628109 H        1 UNL1     0.0309
     119 H         2.000171   7.890218   -1.839122 H        1 UNL1     0.0309
     120 H         1.284962   6.336793   -1.468309 H        1 UNL1     0.0309
     121 H         -0.623714   6.21603   2.890872 H        1 UNL1     0.0524
     122 H         -2.346896   5.943777   2.602117 H        1 UNL1     0.0524
     123 H         -1.568904   5.224005   4.034039 H        1 UNL1     0.0524
@<TRIPOS>BOND
     1     1     2    1
     2     1    42    1
     3     2     3    2
     4     3     4    1
     5     4     5    2
     6     5     7    1
     7     6    75    1
     8     6    76    1
     9     6    77    1
    10     7     9   am
    11     9    10    1
    12    10    11    2
    13    10    43    1
    14    11    14    1
    15    11    15    1
    16    12    13   ar
    17    12    27   ar
    18    12    43    1
    19    13    14    1
    20    13    30   ar
    21    14    17    2
    22    15    16    1
    23    16    17    1
    24    16    18    1
    25    16    22    1
    26    18    19    1
    27    19    20    1
    28    20    21    1
    29    21    22    1
    30    23    24    1
    31    23    88    1
    32    23    89    1
    33    24    25    1
    34    24    26    1
    35    24    90    1
    36    25    91    1
    37    25    92    1
    38    25    93    1
    39    26    94    1
    40    26    95    1
    41    26    96    1
    42    27    28   ar
    43    28    29   ar
    44    29    30   ar
    45    29    31    1
    46    30    33    1
    47    31    32    1
    48    32    33    1
    49    32    35    1
    50    34    97    1
    51    34    98    1
    52    34    99    1
    53    35    61    1
    54    36    37    1
    55    36    60    1
    56    37    38    1
    57    38    39    1
    58    39    40    1
    59    40    41    1
    60    41    42    1
    61    45   100    1
    62    47   101    1
    63    47   102    1
    64    47   103    1
    65    48   104    1
    66    49   105    1
    67    49   106    1
    68    49   107    1
    69    50   108    1
    70    51    59    1
    71    52   109    1
    72    52   110    1
    73    52   111    1
    74    53    54    1
    75    54    55    2
    76    54    56    1
    77    56   112    1
    78    56   113    1
    79    56   114    1
    80    57   115    1
    81    57   116    1
    82    57   117    1
    83    58   118    1
    84    58   119    1
    85    58   120    1
    86    59   121    1
    87    59   122    1
    88    59   123    1
    89    60    61    2
    90     1    47    1
    91     1    62    1
    92     2    63    1
    93     3    64    1
    94     4    65    1
    95     5     6    1
    96     7     8    2
    97     9    78    1
    98    15    79    1
    99    18    80    1
   100    18    81    1
   101    19    82    1
   102    19    83    1
   103    20    23    1
   104    21    84    1
   105    21    85    1
   106    22    86    1
   107    22    87    1
   108    27    45    1
   109    28    34    1
   110    32    58    1
   111    33    46    2
   112    36    51    1
   113    36    66    1
   114    37    52    1
   115    37    67    1
   116    38    53    1
   117    38    68    1
   118    42    48    1
   119    42    72    1
   120    43    44    2
   121    60    73    1
   122    61    74    1
   123    39    69    1
   124    39    57    1
   125    40    70    1
   126    40    50    1
   127    41    71    1
   128    41    49    1
