@<TRIPOS>MOLECULE
*****
 123 128 0 0 0
SMALL
GASTEIGER

@<TRIPOS>ATOM
     1 C         0.282502   0.040617   4.118733 C.3        1 UNL1     0.0009
     2 C         -0.782829   -0.853583   5.344504 C.2        1 UNL1     -0.0787
     3 C         -1.920225   -0.87512   6.24 C.2        1 UNL1     -0.0649
     4 C         -2.529374   -2.188931   7.117038 C.2        1 UNL1     -0.0542
     5 C         -3.65982   -2.708681   7.794554 C.2        1 UNL1     0.0115
     6 C         -5.07255   -2.355702   8.335779 C.3        1 UNL1     -0.0348
     7 C         -3.73133   -4.284835   8.090551 C.2        1 UNL1     0.2441
     8 O         -3.493585   -4.766981   9.189432 O.2        1 UNL1     -0.2702
     9 N         -4.336847   -5.047608   7.076807 N.am        1 UNL1     -0.2772
     10 C         -3.403089   -5.43114   6.141755 C.2        1 UNL1     0.1049
     11 C         -3.113843   -4.541722   5.209288 C.2        1 UNL1     0.0801
     12 C         -1.13853   -6.468054   5.909559 C.ar        1 UNL1     0.0753
     13 C         -0.805247   -5.362443   5.063889 C.ar        1 UNL1     0.0305
     14 C         -1.824767   -4.433426   4.581648 C.2        1 UNL1     0.0924
     15 N         -3.732006   -3.391375   4.891319 N.pl3        1 UNL1     -0.3170
     16 C         -3.123583   -2.882893   3.690685 C.3        1 UNL1     0.1275
     17 N         -1.715146   -3.424211   3.722348 N.2        1 UNL1     -0.2557
     18 C         -3.812376   -3.563336   2.511591 C.3        1 UNL1     0.0016
     19 C         -5.308633   -3.31281   2.611804 C.3        1 UNL1     0.0026
     20 N         -5.544241   -1.875685   2.598062 N.3        1 UNL1     -0.3018
     21 C         -4.871087   -1.125122   3.660082 C.3        1 UNL1     0.0026
     22 C         -3.369085   -1.387612   3.537674 C.3        1 UNL1     0.0016
     23 C         -6.937164   -1.534564   2.388194 C.3        1 UNL1     0.0012
     24 C         -7.359963   -1.859305   0.946826 C.3        1 UNL1     -0.0339
     25 C         -8.396688   -0.851265   0.424222 C.3        1 UNL1     -0.0615
     26 C         -6.137902   -1.921542   0.047119 C.3        1 UNL1     -0.0615
     27 C         -0.183701   -7.417321   6.266366 C.ar        1 UNL1     0.1347
     28 C         1.121672   -7.388689   5.808946 C.ar        1 UNL1     0.0342
     29 C         1.439454   -6.264553   5.01743 C.ar        1 UNL1     0.1435
     30 C         0.50262   -5.286437   4.681498 C.ar        1 UNL1     0.0774
     31 O         2.638736   -6.149207   4.406346 O.3        1 UNL1     -0.4436
     32 C         2.423386   -5.186118   3.363774 C.3        1 UNL1     0.3143
     33 C         1.221908   -4.378891   3.812158 C.2        1 UNL1     0.2504
     34 C         2.127255   -8.498228   5.942458 C.3        1 UNL1     -0.0327
     35 O         3.547442   -4.297442   3.365974 O.2        1 UNL1     -0.4528
     36 C         3.956476   -3.12798   -0.221942 C.3        1 UNL1     0.0854
     37 C         2.917165   -2.396806   -1.156147 C.3        1 UNL1     0.0236
     38 C         3.428106   -1.011097   -1.781041 C.3        1 UNL1     0.1131
     39 C         4.049306   0.094747   -0.835796 C.3        1 UNL1     0.0200
     40 C         3.333929   0.454337   0.627546 C.3        1 UNL1     0.0661
     41 C         1.689616   0.790894   0.873661 C.3        1 UNL1     0.0091
     42 C         0.607785   0.449203   2.31529 C.3        1 UNL1     0.0661
     43 C         -2.556141   -6.619732   6.321424 C.2        1 UNL1     0.2131
     44 O         -3.041373   -7.674723   6.687867 O.2        1 UNL1     -0.2851
     45 O         -0.578967   -8.436877   7.12991 O.3        1 UNL1     -0.5056
     46 O         0.934803   -3.236408   3.532593 O.2        1 UNL1     -0.2836
     47 C         1.19175   1.069094   4.843635 C.3        1 UNL1     -0.0566
     48 O         0.028776   1.814028   2.348712 O.3        1 UNL1     -0.3909
     49 C         0.918237   0.385932   -0.362653 C.3        1 UNL1     -0.0577
     50 O         3.807812   -0.407835   1.642345 O.3        1 UNL1     -0.3910
     51 O         5.124279   -2.401433   0.087569 O.3        1 UNL1     -0.3753
     52 C         1.448242   -2.592078   -0.657065 C.3        1 UNL1     -0.0564
     53 O         2.584484   -0.518847   -2.920479 O.3        1 UNL1     -0.4608
     54 C         2.274962   0.792168   -3.172205 C.2        1 UNL1     0.3042
     55 O         1.212469   1.366889   -2.938443 O.2        1 UNL1     -0.2512
     56 C         3.417435   1.580124   -3.747178 C.3        1 UNL1     0.0332
     57 C         5.638519   -0.083419   -0.864668 C.3        1 UNL1     -0.0567
     58 C         2.040942   -5.989125   2.098687 C.3        1 UNL1     0.0210
     59 C         6.309617   -2.870627   -0.553287 C.3        1 UNL1     0.0372
     60 C         3.403401   -3.621663   1.068618 C.2        1 UNL1     -0.0208
     61 C         3.893844   -3.541758   2.306288 C.2        1 UNL1     0.0882
     62 H         0.87739   -0.872793   3.998312 H        1 UNL1     0.0365
     63 H         -0.23879   -1.795797   5.437907 H        1 UNL1     0.0576
     64 H         -2.614912   -0.034579   6.303316 H        1 UNL1     0.0615
     65 H         -1.732567   -2.935135   7.055713 H        1 UNL1     0.0622
     66 H         4.251673   -4.024109   -0.785731 H        1 UNL1     0.0645
     67 H         2.866861   -3.037118   -2.053939 H        1 UNL1     0.0362
     68 H         4.268279   -1.381684   -2.387916 H        1 UNL1     0.0741
     69 H         4.026432   1.045791   -1.350966 H        1 UNL1     0.0359
     70 H         3.817491   1.426478   0.842417 H        1 UNL1     0.0600
     71 H         1.70059   1.893759   0.771069 H        1 UNL1     0.0348
     72 H         1.63981   0.396954   2.691467 H        1 UNL1     0.0602
     73 H         2.540837   -4.21019   0.876607 H        1 UNL1     0.0628
     74 H         4.73774   -2.914696   2.595892 H        1 UNL1     0.1022
     75 H         -5.044971   -1.396966   8.907705 H        1 UNL1     0.0279
     76 H         -5.842681   -2.16288   7.592283 H        1 UNL1     0.0279
     77 H         -5.420231   -3.058388   9.107175 H        1 UNL1     0.0279
     78 H         -5.037092   -4.485319   6.597678 H        1 UNL1     0.1553
     79 H         -4.674748   -3.173674   5.157358 H        1 UNL1     0.1484
     80 H         -3.400871   -3.162607   1.577329 H        1 UNL1     0.0317
     81 H         -3.608945   -4.639556   2.507518 H        1 UNL1     0.0317
     82 H         -5.739619   -3.775986   3.511599 H        1 UNL1     0.0428
     83 H         -5.780445   -3.808081   1.762598 H        1 UNL1     0.0428
     84 H         -4.999273   -0.041158   3.580069 H        1 UNL1     0.0428
     85 H         -5.275239   -1.369055   4.652289 H        1 UNL1     0.0428
     86 H         -2.900851   -0.723179   4.240009 H        1 UNL1     0.0317
     87 H         -3.003974   -1.029536   2.567328 H        1 UNL1     0.0317
     88 H         -7.544029   -2.138961   3.075008 H        1 UNL1     0.0429
     89 H         -7.130604   -0.4815   2.62988 H        1 UNL1     0.0429
     90 H         -7.80321   -2.861808   0.919743 H        1 UNL1     0.0308
     91 H         -8.10131   0.177295   0.652077 H        1 UNL1     0.0233
     92 H         -8.527293   -0.95609   -0.65539 H        1 UNL1     0.0233
     93 H         -9.38787   -1.003406   0.868346 H        1 UNL1     0.0233
     94 H         -6.429046   -1.763109   -0.996898 H        1 UNL1     0.0233
     95 H         -5.430395   -1.134575   0.322939 H        1 UNL1     0.0233
     96 H         -5.635675   -2.890062   0.122652 H        1 UNL1     0.0233
     97 H         2.496027   -8.832231   4.977223 H        1 UNL1     0.0280
     98 H         3.013192   -8.187538   6.51153 H        1 UNL1     0.0280
     99 H         1.66226   -9.358468   6.451242 H        1 UNL1     0.0280
     100 H         -1.035844   -8.143721   7.898639 H        1 UNL1     0.2922
     101 H         2.21118   0.687173   4.894193 H        1 UNL1     0.0236
     102 H         0.814465   1.35881   5.82379 H        1 UNL1     0.0236
     103 H         1.274896   2.015451   4.283556 H        1 UNL1     0.0236
     104 H         0.210108   2.232599   1.484486 H        1 UNL1     0.2098
     105 H         0.69054   1.206252   -1.038701 H        1 UNL1     0.0234
     106 H         1.348317   -0.449932   -0.914278 H        1 UNL1     0.0234
     107 H         0.0   -0.0   0.0 H        1 UNL1     0.0234
     108 H         3.206545   -0.314731   2.406268 H        1 UNL1     0.2098
     109 H         1.152228   -3.650267   -0.639078 H        1 UNL1     0.0234
     110 H         1.264117   -2.143347   0.325016 H        1 UNL1     0.0234
     111 H         0.726699   -2.092774   -1.317381 H        1 UNL1     0.0234
     112 H         3.111344   2.618873   -3.904194 H        1 UNL1     0.0342
     113 H         4.307949   1.525335   -3.122817 H        1 UNL1     0.0342
     114 H         3.670867   1.151964   -4.726778 H        1 UNL1     0.0342
     115 H         6.159132   0.880508   -0.781035 H        1 UNL1     0.0234
     116 H         6.02649   -0.73536   -0.079492 H        1 UNL1     0.0234
     117 H         6.022607   -0.449808   -1.832231 H        1 UNL1     0.0234
     118 H         2.834761   -5.957706   1.331959 H        1 UNL1     0.0309
     119 H         1.790127   -7.033064   2.311963 H        1 UNL1     0.0309
     120 H         1.172371   -5.568385   1.580355 H        1 UNL1     0.0309
     121 H         6.840199   -3.503607   0.15747 H        1 UNL1     0.0524
     122 H         6.089494   -3.483187   -1.44343 H        1 UNL1     0.0524
     123 H         6.934569   -2.032341   -0.847915 H        1 UNL1     0.0524
@<TRIPOS>BOND
     1     1     2    1
     2     1    42    1
     3     2     3    2
     4     3     4    1
     5     4     5    2
     6     5     7    1
     7     6    75    1
     8     6    76    1
     9     6    77    1
    10     7     9   am
    11     9    10    1
    12    10    11    2
    13    10    43    1
    14    11    14    1
    15    11    15    1
    16    12    13   ar
    17    12    27   ar
    18    12    43    1
    19    13    14    1
    20    13    30   ar
    21    14    17    2
    22    15    16    1
    23    16    17    1
    24    16    18    1
    25    16    22    1
    26    18    19    1
    27    19    20    1
    28    20    21    1
    29    21    22    1
    30    23    24    1
    31    23    88    1
    32    23    89    1
    33    24    25    1
    34    24    26    1
    35    24    90    1
    36    25    91    1
    37    25    92    1
    38    25    93    1
    39    26    94    1
    40    26    95    1
    41    26    96    1
    42    27    28   ar
    43    28    29   ar
    44    29    30   ar
    45    29    31    1
    46    30    33    1
    47    31    32    1
    48    32    33    1
    49    32    35    1
    50    34    97    1
    51    34    98    1
    52    34    99    1
    53    35    61    1
    54    36    37    1
    55    36    60    1
    56    37    38    1
    57    38    39    1
    58    39    40    1
    59    40    41    1
    60    41    42    1
    61    45   100    1
    62    47   101    1
    63    47   102    1
    64    47   103    1
    65    48   104    1
    66    49   105    1
    67    49   106    1
    68    49   107    1
    69    50   108    1
    70    51    59    1
    71    52   109    1
    72    52   110    1
    73    52   111    1
    74    53    54    1
    75    54    55    2
    76    54    56    1
    77    56   112    1
    78    56   113    1
    79    56   114    1
    80    57   115    1
    81    57   116    1
    82    57   117    1
    83    58   118    1
    84    58   119    1
    85    58   120    1
    86    59   121    1
    87    59   122    1
    88    59   123    1
    89    60    61    2
    90     1    47    1
    91     1    62    1
    92     2    63    1
    93     3    64    1
    94     4    65    1
    95     5     6    1
    96     7     8    2
    97     9    78    1
    98    15    79    1
    99    18    80    1
   100    18    81    1
   101    19    82    1
   102    19    83    1
   103    20    23    1
   104    21    84    1
   105    21    85    1
   106    22    86    1
   107    22    87    1
   108    27    45    1
   109    28    34    1
   110    32    58    1
   111    33    46    2
   112    36    51    1
   113    36    66    1
   114    37    52    1
   115    37    67    1
   116    38    53    1
   117    38    68    1
   118    42    48    1
   119    42    72    1
   120    43    44    2
   121    60    73    1
   122    61    74    1
   123    39    69    1
   124    39    57    1
   125    40    70    1
   126    40    50    1
   127    41    71    1
   128    41    49    1
