@<TRIPOS>MOLECULE
*****
 123 128 0 0 0
SMALL
GASTEIGER

@<TRIPOS>ATOM
     1 C         5.167957   1.754219   0.462826 C.3        1 UNL1     0.0009
     2 C         6.599082   2.561856   -0.395451 C.2        1 UNL1     -0.0787
     3 C         7.877371   2.465032   -1.068243 C.2        1 UNL1     -0.0649
     4 C         8.749337   3.701094   -1.828626 C.2        1 UNL1     -0.0542
     5 C         9.763861   3.994831   -2.772839 C.2        1 UNL1     0.0115
     6 C         10.887924   3.370592   -3.644694 C.3        1 UNL1     -0.0348
     7 C         9.854292   5.478199   -3.379824 C.2        1 UNL1     0.2441
     8 O         10.679381   6.300706   -3.006681 O.2        1 UNL1     -0.2702
     9 N         9.097406   5.6844   -4.546339 N.am        1 UNL1     -0.2772
     10 C         7.816035   6.069724   -4.225502 C.2        1 UNL1     0.1049
     11 C         6.972895   5.097416   -3.928931 C.2        1 UNL1     0.0801
     12 C         6.523755   7.674981   -2.807582 C.ar        1 UNL1     0.0753
     13 C         5.768365   6.546259   -2.35594 C.ar        1 UNL1     0.0305
     14 C         5.883108   5.240694   -3.001994 C.2        1 UNL1     0.0924
     15 N         7.096034   3.768571   -4.088727 N.pl3        1 UNL1     -0.3170
     16 C         5.828558   3.168059   -3.767565 C.3        1 UNL1     0.1275
     17 N         5.196569   4.122605   -2.784124 N.2        1 UNL1     -0.2557
     18 C         4.96869   3.226256   -5.02651 C.3        1 UNL1     0.0016
     19 C         5.718052   2.54298   -6.159285 C.3        1 UNL1     0.0026
     20 N         5.991768   1.165156   -5.774956 N.3        1 UNL1     -0.3018
     21 C         6.762119   1.005542   -4.539865 C.3        1 UNL1     0.0026
     22 C         5.988844   1.695221   -3.414572 C.3        1 UNL1     0.0016
     23 C         6.431008   0.346107   -6.887104 C.3        1 UNL1     0.0012
     24 C         5.270425   0.095434   -7.862792 C.3        1 UNL1     -0.0339
     25 C         5.338371   1.041948   -9.072565 C.3        1 UNL1     -0.0615
     26 C         5.256896   -1.361185   -8.292742 C.3        1 UNL1     -0.0615
     27 C         6.320742   8.942449   -2.266815 C.ar        1 UNL1     0.1347
     28 C         5.366712   9.210971   -1.301531 C.ar        1 UNL1     0.0342
     29 C         4.668896   8.075775   -0.83726 C.ar        1 UNL1     0.1435
     30 C         4.886895   6.793989   -1.343935 C.ar        1 UNL1     0.0774
     31 O         3.632512   8.188233   0.021965 O.3        1 UNL1     -0.4436
     32 C         2.911358   6.954656   -0.116237 C.3        1 UNL1     0.3143
     33 C         3.922746   5.962626   -0.653993 C.2        1 UNL1     0.2504
     34 C         4.920877   10.576597   -0.858366 C.3        1 UNL1     -0.0327
     35 O         2.558454   6.517558   1.201965 O.2        1 UNL1     -0.4528
     36 C         -0.6847   4.581967   0.823109 C.3        1 UNL1     0.0854
     37 C         -0.993631   3.321074   -0.072566 C.3        1 UNL1     0.0236
     38 C         -1.588498   2.059389   0.718654 C.3        1 UNL1     0.1131
     39 C         -0.855004   1.529203   2.01602 C.3        1 UNL1     0.0200
     40 C         0.806542   1.385405   2.048008 C.3        1 UNL1     0.0661
     41 C         1.760247   0.617597   0.8739 C.3        1 UNL1     0.0091
     42 C         3.46431   0.981955   0.300476 C.3        1 UNL1     0.0661
     43 C         7.467808   7.46829   -3.933772 C.2        1 UNL1     0.2131
     44 O         7.86277   8.366794   -4.654487 O.2        1 UNL1     -0.2851
     45 O         7.129375   9.978414   -2.72977 O.3        1 UNL1     -0.5056
     46 O         3.940723   4.759108   -0.523323 O.2        1 UNL1     -0.2836
     47 C         5.572712   1.325148   1.89881 C.3        1 UNL1     -0.0566
     48 O         3.914802   -0.428678   0.379763 O.3        1 UNL1     -0.3909
     49 C         0.919465   0.384139   -0.361444 C.3        1 UNL1     -0.0577
     50 O         1.407623   2.603895   2.437505 O.3        1 UNL1     -0.3910
     51 O         -0.800896   4.392154   2.215194 O.3        1 UNL1     -0.3753
     52 C         0.044606   3.161706   -1.230847 C.3        1 UNL1     -0.0564
     53 O         -2.194974   1.019778   -0.177851 O.3        1 UNL1     -0.4608
     54 C         -2.426131   -0.287221   0.163104 C.2        1 UNL1     0.3042
     55 O         -1.857388   -1.285648   -0.276797 O.2        1 UNL1     -0.2512
     56 C         -3.461547   -0.454078   1.238644 C.3        1 UNL1     0.0332
     57 C         -1.56975   2.197434   3.281239 C.3        1 UNL1     -0.0567
     58 C         1.829928   7.198622   -1.194439 C.3        1 UNL1     0.0210
     59 C         -1.111234   5.570827   2.957006 C.3        1 UNL1     0.0372
     60 C         0.64234   5.212446   0.585153 C.2        1 UNL1     -0.0208
     61 C         1.559612   5.648634   1.449501 C.2        1 UNL1     0.0882
     62 H         4.691495   2.737892   0.552732 H        1 UNL1     0.0365
     63 H         6.332316   3.615376   -0.288668 H        1 UNL1     0.0576
     64 H         8.33481   1.498663   -1.291825 H        1 UNL1     0.0615
     65 H         8.263221   4.615979   -1.479113 H        1 UNL1     0.0622
     66 H         -1.431837   5.327714   0.517015 H        1 UNL1     0.0645
     67 H         -1.862871   3.629532   -0.679059 H        1 UNL1     0.0362
     68 H         -2.534066   2.495272   1.075628 H        1 UNL1     0.0741
     69 H         -1.184381   0.517758   2.213247 H        1 UNL1     0.0359
     70 H         0.923884   0.725192   2.928582 H        1 UNL1     0.0600
     71 H         1.807262   -0.403522   1.300589 H        1 UNL1     0.0348
     72 H         3.363339   1.470051   1.280723 H        1 UNL1     0.0602
     73 H         0.754291   5.409817   -0.452035 H        1 UNL1     0.0628
     74 H         1.548207   5.437954   2.519417 H        1 UNL1     0.1022
     75 H         10.915681   2.26195   -3.513633 H        1 UNL1     0.0279
     76 H         10.781655   3.47654   -4.721983 H        1 UNL1     0.0279
     77 H         11.895381   3.65416   -3.30658 H        1 UNL1     0.0279
     78 H         9.033413   4.814385   -5.070797 H        1 UNL1     0.1553
     79 H         7.758325   3.341275   -4.709793 H        1 UNL1     0.1484
     80 H         4.009012   2.734317   -4.827058 H        1 UNL1     0.0317
     81 H         4.739499   4.26277   -5.296252 H        1 UNL1     0.0317
     82 H         6.646771   3.075255   -6.412418 H        1 UNL1     0.0428
     83 H         5.087916   2.597465   -7.047547 H        1 UNL1     0.0428
     84 H         6.885241   -0.037282   -4.231368 H        1 UNL1     0.0428
     85 H         7.791236   1.374653   -4.649383 H        1 UNL1     0.0428
     86 H         6.510549   1.445403   -2.509363 H        1 UNL1     0.0317
     87 H         5.010608   1.21656   -3.284063 H        1 UNL1     0.0317
     88 H         7.223572   0.888735   -7.418792 H        1 UNL1     0.0429
     89 H         6.866529   -0.59921   -6.538577 H        1 UNL1     0.0429
     90 H         4.320432   0.262695   -7.341496 H        1 UNL1     0.0308
     91 H         6.290579   0.942686   -9.602235 H        1 UNL1     0.0233
     92 H         4.519129   0.840883   -9.766844 H        1 UNL1     0.0233
     93 H         5.243115   2.095794   -8.784173 H        1 UNL1     0.0233
     94 H         4.560333   -1.502528   -9.126204 H        1 UNL1     0.0233
     95 H         6.252865   -1.660066   -8.631384 H        1 UNL1     0.0233
     96 H         4.951587   -2.01661   -7.472271 H        1 UNL1     0.0233
     97 H         4.125367   10.52612   -0.120906 H        1 UNL1     0.0280
     98 H         5.73324   11.14401   -0.385752 H        1 UNL1     0.0280
     99 H         4.550593   11.144119   -1.727794 H        1 UNL1     0.0280
     100 H         6.660001   10.733207   -3.038962 H        1 UNL1     0.2922
     101 H         4.710034   0.902021   2.413014 H        1 UNL1     0.0236
     102 H         6.036923   2.127602   2.471138 H        1 UNL1     0.0236
     103 H         6.320617   0.514713   1.893553 H        1 UNL1     0.0236
     104 H         4.333932   -0.555799   1.253342 H        1 UNL1     0.2098
     105 H         0.702703   1.28274   -0.933581 H        1 UNL1     0.0234
     106 H         1.286041   -0.403502   -1.019601 H        1 UNL1     0.0234
     107 H         0.0   -0.0   0.0 H        1 UNL1     0.0234
     108 H         1.219527   3.257282   1.736453 H        1 UNL1     0.2098
     109 H         1.073082   3.061704   -0.856753 H        1 UNL1     0.0234
     110 H         -0.184015   2.32675   -1.901908 H        1 UNL1     0.0234
     111 H         0.052433   4.039296   -1.890939 H        1 UNL1     0.0234
     112 H         -3.58238   -1.51506   1.477522 H        1 UNL1     0.0342
     113 H         -3.221871   0.122453   2.130838 H        1 UNL1     0.0342
     114 H         -4.421099   -0.084651   0.851412 H        1 UNL1     0.0342
     115 H         -2.641465   1.958203   3.318441 H        1 UNL1     0.0234
     116 H         -1.135357   1.908633   4.240377 H        1 UNL1     0.0234
     117 H         -1.598844   3.299833   3.238685 H        1 UNL1     0.0234
     118 H         0.93002   7.683176   -0.776851 H        1 UNL1     0.0309
     119 H         2.193562   7.788281   -2.04195 H        1 UNL1     0.0309
     120 H         1.441089   6.266287   -1.618304 H        1 UNL1     0.0309
     121 H         -0.274522   6.260013   2.846134 H        1 UNL1     0.0524
     122 H         -2.012787   6.079304   2.576624 H        1 UNL1     0.0524
     123 H         -1.259697   5.327051   4.005159 H        1 UNL1     0.0524
@<TRIPOS>BOND
     1     1     2    1
     2     1    42    1
     3     2     3    2
     4     3     4    1
     5     4     5    2
     6     5     7    1
     7     6    75    1
     8     6    76    1
     9     6    77    1
    10     7     9   am
    11     9    10    1
    12    10    11    2
    13    10    43    1
    14    11    14    1
    15    11    15    1
    16    12    13   ar
    17    12    27   ar
    18    12    43    1
    19    13    14    1
    20    13    30   ar
    21    14    17    2
    22    15    16    1
    23    16    17    1
    24    16    18    1
    25    16    22    1
    26    18    19    1
    27    19    20    1
    28    20    21    1
    29    21    22    1
    30    23    24    1
    31    23    88    1
    32    23    89    1
    33    24    25    1
    34    24    26    1
    35    24    90    1
    36    25    91    1
    37    25    92    1
    38    25    93    1
    39    26    94    1
    40    26    95    1
    41    26    96    1
    42    27    28   ar
    43    28    29   ar
    44    29    30   ar
    45    29    31    1
    46    30    33    1
    47    31    32    1
    48    32    33    1
    49    32    35    1
    50    34    97    1
    51    34    98    1
    52    34    99    1
    53    35    61    1
    54    36    37    1
    55    36    60    1
    56    37    38    1
    57    38    39    1
    58    39    40    1
    59    40    41    1
    60    41    42    1
    61    45   100    1
    62    47   101    1
    63    47   102    1
    64    47   103    1
    65    48   104    1
    66    49   105    1
    67    49   106    1
    68    49   107    1
    69    50   108    1
    70    51    59    1
    71    52   109    1
    72    52   110    1
    73    52   111    1
    74    53    54    1
    75    54    55    2
    76    54    56    1
    77    56   112    1
    78    56   113    1
    79    56   114    1
    80    57   115    1
    81    57   116    1
    82    57   117    1
    83    58   118    1
    84    58   119    1
    85    58   120    1
    86    59   121    1
    87    59   122    1
    88    59   123    1
    89    60    61    2
    90     1    47    1
    91     1    62    1
    92     2    63    1
    93     3    64    1
    94     4    65    1
    95     5     6    1
    96     7     8    2
    97     9    78    1
    98    15    79    1
    99    18    80    1
   100    18    81    1
   101    19    82    1
   102    19    83    1
   103    20    23    1
   104    21    84    1
   105    21    85    1
   106    22    86    1
   107    22    87    1
   108    27    45    1
   109    28    34    1
   110    32    58    1
   111    33    46    2
   112    36    51    1
   113    36    66    1
   114    37    52    1
   115    37    67    1
   116    38    53    1
   117    38    68    1
   118    42    48    1
   119    42    72    1
   120    43    44    2
   121    60    73    1
   122    61    74    1
   123    39    69    1
   124    39    57    1
   125    40    70    1
   126    40    50    1
   127    41    71    1
   128    41    49    1
