@<TRIPOS>MOLECULE
*****
 123 128 0 0 0
SMALL
GASTEIGER

@<TRIPOS>ATOM
     1 C         5.067807   2.043473   -0.375254 C.3        1 UNL1     0.0009
     2 C         6.61523   2.492513   0.541743 C.2        1 UNL1     -0.0787
     3 C         7.467279   3.489385   1.15518 C.2        1 UNL1     -0.0649
     4 C         8.881793   3.240072   2.051478 C.2        1 UNL1     -0.0542
     5 C         9.773148   3.806918   2.995538 C.2        1 UNL1     0.0115
     6 C         10.149882   5.1184   3.738108 C.3        1 UNL1     -0.0348
     7 C         10.772546   2.840406   3.798063 C.2        1 UNL1     0.2441
     8 O         11.957643   2.726941   3.516642 O.2        1 UNL1     -0.2702
     9 N         10.259357   2.333308   5.004562 N.am        1 UNL1     -0.2772
     10 C         9.570251   1.163796   4.779403 C.2        1 UNL1     0.1049
     11 C         8.318849   1.293695   4.37773 C.2        1 UNL1     0.0801
     12 C         9.747357   -1.054295   3.636582 C.ar        1 UNL1     0.0753
     13 C         8.469914   -0.769692   3.057143 C.ar        1 UNL1     0.0305
     14 C         7.65627   0.355009   3.513303 C.2        1 UNL1     0.0924
     15 N         7.529283   2.381027   4.349037 N.pl3        1 UNL1     -0.3170
     16 C         6.204246   1.952461   3.987288 C.3        1 UNL1     0.1275
     17 N         6.421695   0.705988   3.164644 N.2        1 UNL1     -0.2557
     18 C         5.510295   1.498861   5.268061 C.3        1 UNL1     0.0016
     19 C         5.548832   2.639728   6.272317 C.3        1 UNL1     0.0026
     20 N         4.877342   3.795229   5.693573 N.3        1 UNL1     -0.3018
     21 C         5.43586   4.268123   4.425189 C.3        1 UNL1     0.0026
     22 C         5.383031   3.107684   3.429959 C.3        1 UNL1     0.0016
     23 C         4.595053   4.830124   6.668227 C.3        1 UNL1     0.0012
     24 C         3.491691   4.372743   7.63526 C.3        1 UNL1     -0.0339
     25 C         4.079092   3.89713   8.974219 C.3        1 UNL1     -0.0615
     26 C         2.478385   5.486598   7.833543 C.3        1 UNL1     -0.0615
     27 C         10.462493   -2.195809   3.282117 C.ar        1 UNL1     0.1347
     28 C         9.986726   -3.142822   2.392814 C.ar        1 UNL1     0.0342
     29 C         8.74919   -2.817066   1.798211 C.ar        1 UNL1     0.1435
     30 C         8.03825   -1.659274   2.116492 C.ar        1 UNL1     0.0774
     31 O         8.10196   -3.689327   0.99493 O.3        1 UNL1     -0.4436
     32 C         6.741445   -3.231342   0.983926 C.3        1 UNL1     0.3143
     33 C         6.814989   -1.762372   1.348527 C.2        1 UNL1     0.2504
     34 C         10.576998   -4.505018   2.155959 C.3        1 UNL1     -0.0327
     35 O         6.279011   -3.302385   -0.37046 O.2        1 UNL1     -0.4528
     36 C         2.545379   -3.954162   -0.162465 C.3        1 UNL1     0.0854
     37 C         1.42548   -3.110711   0.559989 C.3        1 UNL1     0.0236
     38 C         0.204629   -2.663728   -0.378881 C.3        1 UNL1     0.1131
     39 C         0.496683   -1.947717   -1.758845 C.3        1 UNL1     0.0200
     40 C         1.654002   -0.75083   -1.861377 C.3        1 UNL1     0.0661
     41 C         1.787965   0.59246   -0.83413 C.3        1 UNL1     0.0091
     42 C         3.269324   1.515038   -0.268599 C.3        1 UNL1     0.0661
     43 C         10.245234   -0.139837   4.694006 C.2        1 UNL1     0.2131
     44 O         11.082417   -0.457571   5.519176 O.2        1 UNL1     -0.2851
     45 O         11.718384   -2.375094   3.85834 O.3        1 UNL1     -0.5056
     46 O         6.04825   -0.873273   1.052777 O.2        1 UNL1     -0.2836
     47 C         5.188375   2.450798   -1.868415 C.3        1 UNL1     -0.0566
     48 O         2.68853   2.849052   -0.555309 O.3        1 UNL1     -0.3909
     49 C         0.918734   0.365017   0.382506 C.3        1 UNL1     -0.0577
     50 O         2.931403   -1.307783   -2.097541 O.3        1 UNL1     -0.3910
     51 O         2.428103   -4.062054   -1.563192 O.3        1 UNL1     -0.3753
     52 C         2.02303   -2.165394   1.65281 C.3        1 UNL1     -0.0564
     53 O         -0.993979   -2.180371   0.384028 O.3        1 UNL1     -0.4608
     54 C         -1.98431   -1.376554   -0.117024 C.2        1 UNL1     0.3042
     55 O         -2.222131   -0.207838   0.185274 O.2        1 UNL1     -0.2512
     56 C         -2.804525   -2.031659   -1.191639 C.3        1 UNL1     0.0332
     57 C         0.483307   -3.071012   -2.897355 C.3        1 UNL1     -0.0567
     58 C         6.01497   -3.99111   2.118173 C.3        1 UNL1     0.0210
     59 C         3.017969   -5.233204   -2.125626 C.3        1 UNL1     0.0372
     60 C         3.940507   -3.518919   0.119211 C.2        1 UNL1     -0.0208
     61 C         4.974983   -3.345692   -0.704559 C.2        1 UNL1     0.0882
     62 H         5.360612   0.988374   -0.314077 H        1 UNL1     0.0365
     63 H         7.112664   1.521555   0.589393 H        1 UNL1     0.0576
     64 H         7.162435   4.535656   1.229309 H        1 UNL1     0.0615
     65 H         9.139868   2.197551   1.846466 H        1 UNL1     0.0622
     66 H         2.45174   -4.961861   0.266278 H        1 UNL1     0.0645
     67 H         0.932892   -3.837012   1.229618 H        1 UNL1     0.0362
     68 H         -0.196358   -3.654125   -0.643166 H        1 UNL1     0.0741
     69 H         -0.400794   -1.438167   -2.083347 H        1 UNL1     0.0359
     70 H         1.369159   -0.292435   -2.82771 H        1 UNL1     0.0600
     71 H         1.182766   1.328639   -1.398693 H        1 UNL1     0.0348
     72 H         3.58002   0.964895   -1.16867 H        1 UNL1     0.0602
     73 H         4.083653   -3.463355   1.169768 H        1 UNL1     0.0628
     74 H         4.900942   -3.329217   -1.792439 H        1 UNL1     0.1022
     75 H         9.452733   5.943459   3.454744 H        1 UNL1     0.0279
     76 H         10.066265   5.1031   4.822471 H        1 UNL1     0.0279
     77 H         11.116358   5.529438   3.411501 H        1 UNL1     0.0279
     78 H         9.605154   3.001935   5.405851 H        1 UNL1     0.1553
     79 H         7.704947   3.211201   4.884655 H        1 UNL1     0.1484
     80 H         4.479635   1.20744   5.032307 H        1 UNL1     0.0317
     81 H         5.999258   0.611869   5.684969 H        1 UNL1     0.0317
     82 H         6.579014   2.887464   6.567724 H        1 UNL1     0.0428
     83 H         5.050378   2.294281   7.178551 H        1 UNL1     0.0428
     84 H         4.865631   5.085158   3.972305 H        1 UNL1     0.0428
     85 H         6.444307   4.685321   4.552853 H        1 UNL1     0.0428
     86 H         5.673021   3.524638   2.483363 H        1 UNL1     0.0317
     87 H         4.342439   2.802716   3.264856 H        1 UNL1     0.0317
     88 H         5.510716   5.014995   7.245009 H        1 UNL1     0.0429
     89 H         4.326392   5.77553   6.179552 H        1 UNL1     0.0429
     90 H         2.93846   3.541757   7.181816 H        1 UNL1     0.0308
     91 H         4.678606   4.681162   9.446426 H        1 UNL1     0.0233
     92 H         3.283751   3.592644   9.658564 H        1 UNL1     0.0233
     93 H         4.732518   3.024127   8.857026 H        1 UNL1     0.0233
     94 H         1.814919   5.248773   8.672047 H        1 UNL1     0.0233
     95 H         2.993187   6.423007   8.066088 H        1 UNL1     0.0233
     96 H         1.8662   5.632996   6.939247 H        1 UNL1     0.0233
     97 H         9.995794   -5.082644   1.443371 H        1 UNL1     0.0280
     98 H         11.59202   -4.449804   1.741305 H        1 UNL1     0.0280
     99 H         10.611616   -5.062541   3.106257 H        1 UNL1     0.0280
     100 H         11.835805   -3.202082   4.291843 H        1 UNL1     0.2922
     101 H         4.297155   2.133211   -2.409268 H        1 UNL1     0.0236
     102 H         6.102483   2.089936   -2.338701 H        1 UNL1     0.0236
     103 H         5.219027   3.545557   -1.997862 H        1 UNL1     0.0236
     104 H         2.979691   3.111293   -1.450533 H        1 UNL1     0.2098
     105 H         1.306075   -0.373986   1.079393 H        1 UNL1     0.0234
     106 H         0.633236   1.272562   0.914276 H        1 UNL1     0.0234
     107 H         -0.0   0.0   0.0 H        1 UNL1     0.0234
     108 H         3.170759   -1.82992   -1.3077 H        1 UNL1     0.2098
     109 H         2.756254   -1.460223   1.237084 H        1 UNL1     0.0234
     110 H         1.25806   -1.613053   2.209123 H        1 UNL1     0.0234
     111 H         2.559503   -2.730026   2.426976 H        1 UNL1     0.0234
     112 H         -3.560215   -1.332072   -1.561579 H        1 UNL1     0.0342
     113 H         -2.187269   -2.406916   -2.006514 H        1 UNL1     0.0342
     114 H         -3.32828   -2.889776   -0.748376 H        1 UNL1     0.0342
     115 H         -0.476924   -3.603726   -2.93422 H        1 UNL1     0.0234
     116 H         0.685744   -2.689285   -3.900027 H        1 UNL1     0.0234
     117 H         1.18137   -3.903271   -2.702429 H        1 UNL1     0.0234
     118 H         5.681609   -4.993866   1.798239 H        1 UNL1     0.0309
     119 H         6.618633   -4.087175   3.026228 H        1 UNL1     0.0309
     120 H         5.084022   -3.500916   2.42338 H        1 UNL1     0.0309
     121 H         4.091511   -5.180142   -1.946607 H        1 UNL1     0.0524
     122 H         2.647592   -6.157251   -1.65129 H        1 UNL1     0.0524
     123 H         2.817684   -5.279718   -3.192311 H        1 UNL1     0.0524
@<TRIPOS>BOND
     1     1     2    1
     2     1    42    1
     3     2     3    2
     4     3     4    1
     5     4     5    2
     6     5     7    1
     7     6    75    1
     8     6    76    1
     9     6    77    1
    10     7     9   am
    11     9    10    1
    12    10    11    2
    13    10    43    1
    14    11    14    1
    15    11    15    1
    16    12    13   ar
    17    12    27   ar
    18    12    43    1
    19    13    14    1
    20    13    30   ar
    21    14    17    2
    22    15    16    1
    23    16    17    1
    24    16    18    1
    25    16    22    1
    26    18    19    1
    27    19    20    1
    28    20    21    1
    29    21    22    1
    30    23    24    1
    31    23    88    1
    32    23    89    1
    33    24    25    1
    34    24    26    1
    35    24    90    1
    36    25    91    1
    37    25    92    1
    38    25    93    1
    39    26    94    1
    40    26    95    1
    41    26    96    1
    42    27    28   ar
    43    28    29   ar
    44    29    30   ar
    45    29    31    1
    46    30    33    1
    47    31    32    1
    48    32    33    1
    49    32    35    1
    50    34    97    1
    51    34    98    1
    52    34    99    1
    53    35    61    1
    54    36    37    1
    55    36    60    1
    56    37    38    1
    57    38    39    1
    58    39    40    1
    59    40    41    1
    60    41    42    1
    61    45   100    1
    62    47   101    1
    63    47   102    1
    64    47   103    1
    65    48   104    1
    66    49   105    1
    67    49   106    1
    68    49   107    1
    69    50   108    1
    70    51    59    1
    71    52   109    1
    72    52   110    1
    73    52   111    1
    74    53    54    1
    75    54    55    2
    76    54    56    1
    77    56   112    1
    78    56   113    1
    79    56   114    1
    80    57   115    1
    81    57   116    1
    82    57   117    1
    83    58   118    1
    84    58   119    1
    85    58   120    1
    86    59   121    1
    87    59   122    1
    88    59   123    1
    89    60    61    2
    90     1    47    1
    91     1    62    1
    92     2    63    1
    93     3    64    1
    94     4    65    1
    95     5     6    1
    96     7     8    2
    97     9    78    1
    98    15    79    1
    99    18    80    1
   100    18    81    1
   101    19    82    1
   102    19    83    1
   103    20    23    1
   104    21    84    1
   105    21    85    1
   106    22    86    1
   107    22    87    1
   108    27    45    1
   109    28    34    1
   110    32    58    1
   111    33    46    2
   112    36    51    1
   113    36    66    1
   114    37    52    1
   115    37    67    1
   116    38    53    1
   117    38    68    1
   118    42    48    1
   119    42    72    1
   120    43    44    2
   121    60    73    1
   122    61    74    1
   123    39    69    1
   124    39    57    1
   125    40    70    1
   126    40    50    1
   127    41    71    1
   128    41    49    1
