@<TRIPOS>MOLECULE
*****
 123 128 0 0 0
SMALL
GASTEIGER

@<TRIPOS>ATOM
     1 C         5.168552   1.742134   0.500309 C.3        1 UNL1     0.0009
     2 C         6.607761   2.546384   -0.347569 C.2        1 UNL1     -0.0787
     3 C         7.890672   2.446541   -1.011056 C.2        1 UNL1     -0.0649
     4 C         8.77103   3.680527   -1.765115 C.2        1 UNL1     -0.0542
     5 C         9.79307   3.97185   -2.701941 C.2        1 UNL1     0.0115
     6 C         10.921971   3.344946   -3.565594 C.3        1 UNL1     -0.0348
     7 C         9.89138   5.454978   -3.308287 C.2        1 UNL1     0.2441
     8 O         10.71566   6.275566   -2.92918 O.2        1 UNL1     -0.2702
     9 N         9.143471   5.662903   -4.480274 N.am        1 UNL1     -0.2772
     10 C         7.860709   6.051239   -4.168762 C.2        1 UNL1     0.1049
     11 C         7.013164   5.08092   -3.8783 C.2        1 UNL1     0.0801
     12 C         6.561927   7.659574   -2.760302 C.ar        1 UNL1     0.0753
     13 C         5.800636   6.532642   -2.314133 C.ar        1 UNL1     0.0305
     14 C         5.917011   5.226786   -2.959306 C.2        1 UNL1     0.0924
     15 N         7.134348   3.751783   -4.037166 N.pl3        1 UNL1     -0.3170
     16 C         5.863171   3.154254   -3.725205 C.3        1 UNL1     0.1275
     17 N         5.226292   4.110316   -2.746402 N.2        1 UNL1     -0.2557
     18 C         5.012608   3.214413   -4.990363 C.3        1 UNL1     0.0016
     19 C         5.768576   2.529339   -6.11765 C.3        1 UNL1     0.0026
     20 N         6.036267   1.150893   -5.731311 N.3        1 UNL1     -0.3018
     21 C         6.797251   0.989526   -4.490653 C.3        1 UNL1     0.0026
     22 C         6.01744   1.681058   -3.371023 C.3        1 UNL1     0.0016
     23 C         6.481654   0.330774   -6.84022 C.3        1 UNL1     0.0012
     24 C         5.327605   0.082779   -7.824306 C.3        1 UNL1     -0.0339
     25 C         5.356487   1.085913   -8.989185 C.3        1 UNL1     -0.0615
     26 C         5.366017   -1.351982   -8.321062 C.3        1 UNL1     -0.0615
     27 C         6.35796   8.927536   -2.221054 C.ar        1 UNL1     0.1347
     28 C         5.397576   9.198329   -1.26273 C.ar        1 UNL1     0.0342
     29 C         4.693749   8.064789   -0.803514 C.ar        1 UNL1     0.1435
     30 C         4.912421   6.782475   -1.308562 C.ar        1 UNL1     0.0774
     31 O         3.651418   8.179707   0.048158 O.3        1 UNL1     -0.4436
     32 C         2.9284   6.947817   -0.095249 C.3        1 UNL1     0.3143
     33 C         3.941343   5.9534   -0.625622 C.2        1 UNL1     0.2504
     34 C         4.951731   10.565014   -0.822847 C.3        1 UNL1     -0.0327
     35 O         2.564909   6.511599   1.220365 O.2        1 UNL1     -0.4528
     36 C         -0.67993   4.58359   0.818008 C.3        1 UNL1     0.0854
     37 C         -0.985299   3.323388   -0.079858 C.3        1 UNL1     0.0236
     38 C         -1.58885   2.063131   0.707049 C.3        1 UNL1     0.1131
     39 C         -0.866042   1.531282   2.009721 C.3        1 UNL1     0.0200
     40 C         0.794887   1.383595   2.05378 C.3        1 UNL1     0.0661
     41 C         1.755295   0.613509   0.886648 C.3        1 UNL1     0.0091
     42 C         3.464326   0.973855   0.325608 C.3        1 UNL1     0.0661
     43 C         7.513648   7.450628   -3.879601 C.2        1 UNL1     0.2131
     44 O         7.915937   8.348177   -4.597449 O.2        1 UNL1     -0.2851
     45 O         7.172357   9.961587   -2.678148 O.3        1 UNL1     -0.5056
     46 O         3.955552   4.749848   -0.494797 O.2        1 UNL1     -0.2836
     47 C         5.561861   1.312174   1.939206 C.3        1 UNL1     -0.0566
     48 O         3.910926   -0.437827   0.408198 O.3        1 UNL1     -0.3909
     49 C         0.922963   0.38197   -0.354765 C.3        1 UNL1     -0.0577
     50 O         1.395974   2.60069   2.447604 O.3        1 UNL1     -0.3910
     51 O         -0.806679   4.394106   2.209216 O.3        1 UNL1     -0.3753
     52 C         0.060947   3.161544   -1.230564 C.3        1 UNL1     -0.0564
     53 O         -2.191231   1.024906   -0.193813 O.3        1 UNL1     -0.4608
     54 C         -2.41581   -0.284788   0.14114 C.2        1 UNL1     0.3042
     55 O         -1.844148   -1.278524   -0.305547 O.2        1 UNL1     -0.2512
     56 C         -3.447287   -0.461543   1.218882 C.3        1 UNL1     0.0332
     57 C         -1.588392   2.201235   3.2697 C.3        1 UNL1     -0.0567
     58 C         1.855405   7.19427   -1.181283 C.3        1 UNL1     0.0210
     59 C         -1.150559   5.567206   2.945048 C.3        1 UNL1     0.0372
     60 C         0.650275   5.210951   0.589682 C.2        1 UNL1     -0.0208
     61 C         1.562264   5.645026   1.460659 C.2        1 UNL1     0.0882
     62 H         4.693754   2.726923   0.586729 H        1 UNL1     0.0365
     63 H         6.342694   3.60053   -0.242751 H        1 UNL1     0.0576
     64 H         8.347459   1.479094   -1.231287 H        1 UNL1     0.0615
     65 H         8.284531   4.596562   -1.419163 H        1 UNL1     0.0622
     66 H         -1.423076   5.331072   0.506477 H        1 UNL1     0.0645
     67 H         -1.849387   3.633856   -0.692657 H        1 UNL1     0.0362
     68 H         -2.535962   2.501241   1.057136 H        1 UNL1     0.0741
     69 H         -1.199209   0.520619   2.204574 H        1 UNL1     0.0359
     70 H         0.904284   0.723145   2.935198 H        1 UNL1     0.0600
     71 H         1.796818   -0.407699   1.313691 H        1 UNL1     0.0348
     72 H         3.357381   1.462224   1.305084 H        1 UNL1     0.0602
     73 H         0.770218   5.408018   -0.446671 H        1 UNL1     0.0628
     74 H         1.542595   5.434416   2.530469 H        1 UNL1     0.1022
     75 H         10.964758   2.239615   -3.412469 H        1 UNL1     0.0279
     76 H         10.810311   3.42785   -4.644356 H        1 UNL1     0.0279
     77 H         11.926873   3.64836   -3.237245 H        1 UNL1     0.0279
     78 H         9.081252   4.793019   -5.005162 H        1 UNL1     0.1553
     79 H         7.80013   3.322913   -4.653395 H        1 UNL1     0.1484
     80 H         4.050358   2.724729   -4.797875 H        1 UNL1     0.0317
     81 H         4.78781   4.25145   -5.261787 H        1 UNL1     0.0317
     82 H         6.700353   3.059428   -6.364043 H        1 UNL1     0.0428
     83 H         5.145037   2.585263   -7.010467 H        1 UNL1     0.0428
     84 H         6.915687   -0.053571   -4.181246 H        1 UNL1     0.0428
     85 H         7.827997   1.356222   -4.592702 H        1 UNL1     0.0428
     86 H         6.531969   1.430056   -2.462042 H        1 UNL1     0.0317
     87 H         5.037163   1.204694   -3.247611 H        1 UNL1     0.0317
     88 H         7.279327   0.871522   -7.36615 H        1 UNL1     0.0429
     89 H         6.912418   -0.615547   -6.488517 H        1 UNL1     0.0429
     90 H         4.373965   0.190738   -7.29409 H        1 UNL1     0.0308
     91 H         6.306283   1.03976   -9.53035 H        1 UNL1     0.0233
     92 H         4.537159   0.892851   -9.685632 H        1 UNL1     0.0233
     93 H         5.23289   2.121958   -8.651293 H        1 UNL1     0.0233
     94 H         4.671015   -1.480688   -9.157867 H        1 UNL1     0.0233
     95 H         6.370687   -1.597568   -8.676431 H        1 UNL1     0.0233
     96 H         5.08937   -2.055437   -7.530754 H        1 UNL1     0.0233
     97 H         4.157052   10.516287   -0.084375 H        1 UNL1     0.0280
     98 H         5.764408   11.134022   -0.352697 H        1 UNL1     0.0280
     99 H         4.580286   11.129998   -1.693431 H        1 UNL1     0.0280
     100 H         6.706851   10.712527   -3.002208 H        1 UNL1     0.2922
     101 H         4.697618   0.879669   2.44287 H        1 UNL1     0.0236
     102 H         6.012682   2.116957   2.51892 H        1 UNL1     0.0236
     103 H         6.317074   0.508528   1.93944 H        1 UNL1     0.0236
     104 H         4.328788   -0.564325   1.282474 H        1 UNL1     0.2098
     105 H         0.712467   1.281054   -0.928482 H        1 UNL1     0.0234
     106 H         1.292465   -0.406553   -1.010224 H        1 UNL1     0.0234
     107 H         0.0   -0.0   0.0 H        1 UNL1     0.0234
     108 H         1.197078   3.259907   1.755042 H        1 UNL1     0.2098
     109 H         1.084977   3.04676   -0.848597 H        1 UNL1     0.0234
     110 H         -0.17139   2.334718   -1.91036 H        1 UNL1     0.0234
     111 H         0.084405   4.044304   -1.883351 H        1 UNL1     0.0234
     112 H         -3.574396   -1.525323   1.441504 H        1 UNL1     0.0342
     113 H         -3.199392   0.099086   2.11893 H        1 UNL1     0.0342
     114 H         -4.406051   -0.0794   0.842182 H        1 UNL1     0.0342
     115 H         -2.652987   1.934184   3.319789 H        1 UNL1     0.0234
     116 H         -1.138842   1.940147   4.229797 H        1 UNL1     0.0234
     117 H         -1.647336   3.301605   3.209252 H        1 UNL1     0.0234
     118 H         0.95425   7.682355   -0.770552 H        1 UNL1     0.0309
     119 H         2.226991   7.781743   -2.026861 H        1 UNL1     0.0309
     120 H         1.466365   6.262796   -1.606854 H        1 UNL1     0.0309
     121 H         -0.345163   6.288719   2.810465 H        1 UNL1     0.0524
     122 H         -2.079485   6.03424   2.577607 H        1 UNL1     0.0524
     123 H         -1.268368   5.329103   3.998387 H        1 UNL1     0.0524
@<TRIPOS>BOND
     1     1     2    1
     2     1    42    1
     3     2     3    2
     4     3     4    1
     5     4     5    2
     6     5     7    1
     7     6    75    1
     8     6    76    1
     9     6    77    1
    10     7     9   am
    11     9    10    1
    12    10    11    2
    13    10    43    1
    14    11    14    1
    15    11    15    1
    16    12    13   ar
    17    12    27   ar
    18    12    43    1
    19    13    14    1
    20    13    30   ar
    21    14    17    2
    22    15    16    1
    23    16    17    1
    24    16    18    1
    25    16    22    1
    26    18    19    1
    27    19    20    1
    28    20    21    1
    29    21    22    1
    30    23    24    1
    31    23    88    1
    32    23    89    1
    33    24    25    1
    34    24    26    1
    35    24    90    1
    36    25    91    1
    37    25    92    1
    38    25    93    1
    39    26    94    1
    40    26    95    1
    41    26    96    1
    42    27    28   ar
    43    28    29   ar
    44    29    30   ar
    45    29    31    1
    46    30    33    1
    47    31    32    1
    48    32    33    1
    49    32    35    1
    50    34    97    1
    51    34    98    1
    52    34    99    1
    53    35    61    1
    54    36    37    1
    55    36    60    1
    56    37    38    1
    57    38    39    1
    58    39    40    1
    59    40    41    1
    60    41    42    1
    61    45   100    1
    62    47   101    1
    63    47   102    1
    64    47   103    1
    65    48   104    1
    66    49   105    1
    67    49   106    1
    68    49   107    1
    69    50   108    1
    70    51    59    1
    71    52   109    1
    72    52   110    1
    73    52   111    1
    74    53    54    1
    75    54    55    2
    76    54    56    1
    77    56   112    1
    78    56   113    1
    79    56   114    1
    80    57   115    1
    81    57   116    1
    82    57   117    1
    83    58   118    1
    84    58   119    1
    85    58   120    1
    86    59   121    1
    87    59   122    1
    88    59   123    1
    89    60    61    2
    90     1    47    1
    91     1    62    1
    92     2    63    1
    93     3    64    1
    94     4    65    1
    95     5     6    1
    96     7     8    2
    97     9    78    1
    98    15    79    1
    99    18    80    1
   100    18    81    1
   101    19    82    1
   102    19    83    1
   103    20    23    1
   104    21    84    1
   105    21    85    1
   106    22    86    1
   107    22    87    1
   108    27    45    1
   109    28    34    1
   110    32    58    1
   111    33    46    2
   112    36    51    1
   113    36    66    1
   114    37    52    1
   115    37    67    1
   116    38    53    1
   117    38    68    1
   118    42    48    1
   119    42    72    1
   120    43    44    2
   121    60    73    1
   122    61    74    1
   123    39    69    1
   124    39    57    1
   125    40    70    1
   126    40    50    1
   127    41    71    1
   128    41    49    1
