@<TRIPOS>MOLECULE
*****
 123 128 0 0 0
SMALL
GASTEIGER

@<TRIPOS>ATOM
     1 C         4.220575   -0.991669   -3.341439 C.3        1 UNL1     0.0009
     2 C         5.00574   -0.581435   -4.970016 C.2        1 UNL1     -0.0787
     3 C         5.310559   -0.932021   -6.341228 C.2        1 UNL1     -0.0649
     4 C         6.059881   0.026644   -7.518442 C.2        1 UNL1     -0.0542
     5 C         6.264816   0.210343   -8.908167 C.2        1 UNL1     0.0115
     6 C         6.070184   -0.442751   -10.3042 C.3        1 UNL1     -0.0348
     7 C         6.779732   1.636379   -9.435683 C.2        1 UNL1     0.2441
     8 O         7.940585   1.846546   -9.759373 O.2        1 UNL1     -0.2702
     9 N         5.759888   2.551864   -9.748662 N.am        1 UNL1     -0.2772
     10 C         5.405271   3.275485   -8.63334 C.2        1 UNL1     0.1049
     11 C         4.545449   2.697956   -7.813958 C.2        1 UNL1     0.0801
     12 C         6.363829   4.611112   -6.747976 C.ar        1 UNL1     0.0753
     13 C         5.56076   3.809598   -5.875471 C.ar        1 UNL1     0.0305
     14 C         4.527201   2.915637   -6.392811 C.2        1 UNL1     0.0924
     15 N         3.790347   1.59976   -7.988066 N.pl3        1 UNL1     -0.3170
     16 C         2.899826   1.49587   -6.862706 C.3        1 UNL1     0.1275
     17 N         3.632974   2.182144   -5.736098 N.2        1 UNL1     -0.2557
     18 C         1.683053   2.364437   -7.167265 C.3        1 UNL1     0.0016
     19 C         1.081012   1.912159   -8.488092 C.3        1 UNL1     0.0026
     20 N         0.708176   0.508782   -8.376049 N.3        1 UNL1     -0.3018
     21 C         1.802073   -0.398944   -8.024207 C.3        1 UNL1     0.0026
     22 C         2.389128   0.071207   -6.692208 C.3        1 UNL1     0.0016
     23 C         -0.139722   0.062007   -9.463295 C.3        1 UNL1     0.0012
     24 C         -1.555957   -0.244041   -8.951075 C.3        1 UNL1     -0.0339
     25 C         -2.237325   1.01686   -8.394368 C.3        1 UNL1     -0.0615
     26 C         -2.381214   -0.884988   -10.053308 C.3        1 UNL1     -0.0615
     27 C         7.262251   5.548567   -6.243857 C.ar        1 UNL1     0.1347
     28 C         7.415864   5.801018   -4.892295 C.ar        1 UNL1     0.0342
     29 C         6.650639   4.965937   -4.050728 C.ar        1 UNL1     0.1435
     30 C         5.773233   3.997721   -4.540563 C.ar        1 UNL1     0.0774
     31 O         6.60702   5.161428   -2.714731 O.3        1 UNL1     -0.4436
     32 C         5.41891   4.478619   -2.2869 C.3        1 UNL1     0.3143
     33 C         5.15146   3.440229   -3.357614 C.2        1 UNL1     0.2504
     34 C         8.167682   6.955649   -4.290883 C.3        1 UNL1     -0.0327
     35 O         5.74557   3.766301   -1.087255 O.2        1 UNL1     -0.4528
     36 C         2.539592   3.615789   0.939353 C.3        1 UNL1     0.0854
     37 C         1.133633   3.024829   0.537398 C.3        1 UNL1     0.0236
     38 C         0.551874   1.92039   1.544133 C.3        1 UNL1     0.1131
     39 C         1.456091   0.695566   1.973631 C.3        1 UNL1     0.0200
     40 C         2.376225   -0.113278   0.84157 C.3        1 UNL1     0.0661
     41 C         1.823782   -0.703861   -0.649613 C.3        1 UNL1     0.0091
     42 C         2.693049   -0.880602   -2.255397 C.3        1 UNL1     0.0661
     43 C         6.143709   4.474294   -8.209169 C.2        1 UNL1     0.2131
     44 O         6.44848   5.331166   -9.018875 O.2        1 UNL1     -0.2851
     45 O         8.03887   6.25529   -7.159741 O.3        1 UNL1     -0.5056
     46 O         4.574539   2.380983   -3.252668 O.2        1 UNL1     -0.2836
     47 C         5.06822   -2.049969   -2.585478 C.3        1 UNL1     -0.0566
     48 O         2.226798   -2.269558   -2.48459 O.3        1 UNL1     -0.3909
     49 C         0.471144   -0.09498   -0.944787 C.3        1 UNL1     -0.0577
     50 O         3.633122   0.512133   0.677876 O.3        1 UNL1     -0.3910
     51 O         3.186004   2.985574   2.022133 O.3        1 UNL1     -0.3753
     52 C         0.976332   2.901051   -1.013371 C.3        1 UNL1     -0.0564
     53 O         -0.90802   1.635429   1.344551 O.3        1 UNL1     -0.4608
     54 C         -1.601285   0.600066   1.914934 C.2        1 UNL1     0.3042
     55 O         -1.885306   0.456461   3.10344 O.2        1 UNL1     -0.2512
     56 C         -2.091562   -0.414786   0.921748 C.3        1 UNL1     0.0332
     57 C         2.148252   1.071787   3.365589 C.3        1 UNL1     -0.0567
     58 C         4.28037   5.524882   -2.311154 C.3        1 UNL1     0.0210
     59 C         3.393484   3.817307   3.162763 C.3        1 UNL1     0.0372
     60 C         3.530815   3.689344   -0.16845 C.2        1 UNL1     -0.0208
     61 C         4.822051   3.356686   -0.196572 C.2        1 UNL1     0.0882
     62 H         4.535401   -0.011137   -2.964406 H        1 UNL1     0.0365
     63 H         5.492837   0.365572   -4.728388 H        1 UNL1     0.0576
     64 H         4.915336   -1.840506   -6.801186 H        1 UNL1     0.0615
     65 H         6.483912   0.85692   -6.947196 H        1 UNL1     0.0622
     66 H         2.330093   4.656033   1.225795 H        1 UNL1     0.0645
     67 H         0.433726   3.862404   0.702198 H        1 UNL1     0.0362
     68 H         0.444653   2.535837   2.450362 H        1 UNL1     0.0741
     69 H         0.819394   -0.086871   2.36455 H        1 UNL1     0.0359
     70 H         2.599535   -1.039918   1.404181 H        1 UNL1     0.0600
     71 H         1.53903   -1.73334   -0.356275 H        1 UNL1     0.0348
     72 H         3.480201   -0.798318   -1.491895 H        1 UNL1     0.0602
     73 H         3.095067   4.195187   -0.993978 H        1 UNL1     0.0628
     74 H         5.329069   2.786569   0.582618 H        1 UNL1     0.1022
     75 H         6.067502   -1.556211   -10.219156 H        1 UNL1     0.0279
     76 H         5.125584   -0.243816   -10.805423 H        1 UNL1     0.0279
     77 H         6.927184   -0.278525   -10.973739 H        1 UNL1     0.0279
     78 H         4.932917   2.048416   -10.062882 H        1 UNL1     0.1553
     79 H         3.57959   1.205425   -8.886406 H        1 UNL1     0.1484
     80 H         0.962473   2.27103   -6.3458 H        1 UNL1     0.0317
     81 H         1.961205   3.422429   -7.221436 H        1 UNL1     0.0317
     82 H         1.773977   2.071829   -9.327268 H        1 UNL1     0.0428
     83 H         0.216076   2.545729   -8.686903 H        1 UNL1     0.0428
     84 H         1.480655   -1.433433   -7.868213 H        1 UNL1     0.0428
     85 H         2.548783   -0.469765   -8.827155 H        1 UNL1     0.0428
     86 H         3.092198   -0.687318   -6.401825 H        1 UNL1     0.0317
     87 H         1.624326   0.022151   -5.907501 H        1 UNL1     0.0317
     88 H         -0.20266   0.871578   -10.202165 H        1 UNL1     0.0429
     89 H         0.292819   -0.807437   -9.97491 H        1 UNL1     0.0429
     90 H         -1.494767   -0.99038   -8.150172 H        1 UNL1     0.0308
     91 H         -2.086529   1.106518   -7.314403 H        1 UNL1     0.0233
     92 H         -1.851923   1.913206   -8.885934 H        1 UNL1     0.0233
     93 H         -3.320656   1.016186   -8.565336 H        1 UNL1     0.0233
     94 H         -2.045891   -0.527285   -11.03282 H        1 UNL1     0.0233
     95 H         -2.256166   -1.971169   -10.030167 H        1 UNL1     0.0233
     96 H         -3.443635   -0.649584   -9.944606 H        1 UNL1     0.0233
     97 H         8.049368   7.001453   -3.212396 H        1 UNL1     0.0280
     98 H         9.248196   6.885226   -4.471957 H        1 UNL1     0.0280
     99 H         7.796788   7.900995   -4.719664 H        1 UNL1     0.0280
     100 H         8.175305   7.160426   -6.941254 H        1 UNL1     0.2922
     101 H         5.928592   -1.568499   -2.121148 H        1 UNL1     0.0236
     102 H         5.35963   -2.892598   -3.211609 H        1 UNL1     0.0236
     103 H         4.513761   -2.502032   -1.746188 H        1 UNL1     0.0236
     104 H         3.004936   -2.856838   -2.416961 H        1 UNL1     0.2098
     105 H         0.51228   0.892817   -1.396866 H        1 UNL1     0.0234
     106 H         -0.205638   -0.739305   -1.505803 H        1 UNL1     0.0234
     107 H         -0.0   0.0   0.0 H        1 UNL1     0.0234
     108 H         4.306175   -0.194553   0.640984 H        1 UNL1     0.2098
     109 H         -0.073362   2.968325   -1.331691 H        1 UNL1     0.0234
     110 H         1.574583   3.633131   -1.566452 H        1 UNL1     0.0234
     111 H         1.336691   1.930868   -1.380567 H        1 UNL1     0.0234
     112 H         -3.04188   -0.085051   0.491031 H        1 UNL1     0.0342
     113 H         -1.357269   -0.613064   0.142426 H        1 UNL1     0.0342
     114 H         -2.272996   -1.357666   1.455811 H        1 UNL1     0.0342
     115 H         1.405486   1.291717   4.144766 H        1 UNL1     0.0234
     116 H         2.81274   0.297675   3.754506 H        1 UNL1     0.0234
     117 H         2.711722   2.020195   3.334545 H        1 UNL1     0.0234
     118 H         4.434592   6.287349   -3.09465 H        1 UNL1     0.0309
     119 H         3.288939   5.078129   -2.436373 H        1 UNL1     0.0309
     120 H         4.232614   6.115586   -1.3898 H        1 UNL1     0.0309
     121 H         4.446045   3.746217   3.435559 H        1 UNL1     0.0524
     122 H         3.175948   4.877721   2.952436 H        1 UNL1     0.0524
     123 H         2.769234   3.486248   3.987873 H        1 UNL1     0.0524
@<TRIPOS>BOND
     1     1     2    1
     2     1    42    1
     3     2     3    2
     4     3     4    1
     5     4     5    2
     6     5     7    1
     7     6    75    1
     8     6    76    1
     9     6    77    1
    10     7     9   am
    11     9    10    1
    12    10    11    2
    13    10    43    1
    14    11    14    1
    15    11    15    1
    16    12    13   ar
    17    12    27   ar
    18    12    43    1
    19    13    14    1
    20    13    30   ar
    21    14    17    2
    22    15    16    1
    23    16    17    1
    24    16    18    1
    25    16    22    1
    26    18    19    1
    27    19    20    1
    28    20    21    1
    29    21    22    1
    30    23    24    1
    31    23    88    1
    32    23    89    1
    33    24    25    1
    34    24    26    1
    35    24    90    1
    36    25    91    1
    37    25    92    1
    38    25    93    1
    39    26    94    1
    40    26    95    1
    41    26    96    1
    42    27    28   ar
    43    28    29   ar
    44    29    30   ar
    45    29    31    1
    46    30    33    1
    47    31    32    1
    48    32    33    1
    49    32    35    1
    50    34    97    1
    51    34    98    1
    52    34    99    1
    53    35    61    1
    54    36    37    1
    55    36    60    1
    56    37    38    1
    57    38    39    1
    58    39    40    1
    59    40    41    1
    60    41    42    1
    61    45   100    1
    62    47   101    1
    63    47   102    1
    64    47   103    1
    65    48   104    1
    66    49   105    1
    67    49   106    1
    68    49   107    1
    69    50   108    1
    70    51    59    1
    71    52   109    1
    72    52   110    1
    73    52   111    1
    74    53    54    1
    75    54    55    2
    76    54    56    1
    77    56   112    1
    78    56   113    1
    79    56   114    1
    80    57   115    1
    81    57   116    1
    82    57   117    1
    83    58   118    1
    84    58   119    1
    85    58   120    1
    86    59   121    1
    87    59   122    1
    88    59   123    1
    89    60    61    2
    90     1    47    1
    91     1    62    1
    92     2    63    1
    93     3    64    1
    94     4    65    1
    95     5     6    1
    96     7     8    2
    97     9    78    1
    98    15    79    1
    99    18    80    1
   100    18    81    1
   101    19    82    1
   102    19    83    1
   103    20    23    1
   104    21    84    1
   105    21    85    1
   106    22    86    1
   107    22    87    1
   108    27    45    1
   109    28    34    1
   110    32    58    1
   111    33    46    2
   112    36    51    1
   113    36    66    1
   114    37    52    1
   115    37    67    1
   116    38    53    1
   117    38    68    1
   118    42    48    1
   119    42    72    1
   120    43    44    2
   121    60    73    1
   122    61    74    1
   123    39    69    1
   124    39    57    1
   125    40    70    1
   126    40    50    1
   127    41    71    1
   128    41    49    1
