@<TRIPOS>MOLECULE
*****
 123 128 0 0 0
SMALL
GASTEIGER

@<TRIPOS>ATOM
     1 C         5.03664   2.056296   0.644713 C.3        1 UNL1     0.0009
     2 C         6.422563   2.997726   -0.148989 C.2        1 UNL1     -0.0787
     3 C         7.718072   3.019481   -0.794922 C.2        1 UNL1     -0.0649
     4 C         8.513255   4.343858   -1.487789 C.2        1 UNL1     -0.0542
     5 C         9.522921   4.746522   -2.396367 C.2        1 UNL1     0.0115
     6 C         10.707108   4.239335   -3.264575 C.3        1 UNL1     -0.0348
     7 C         9.51766   6.255174   -2.944939 C.2        1 UNL1     0.2441
     8 O         10.272879   7.119641   -2.522012 O.2        1 UNL1     -0.2702
     9 N         8.771925   6.451922   -4.120235 N.am        1 UNL1     -0.2772
     10 C         7.459592   6.731255   -3.81515 C.2        1 UNL1     0.1049
     11 C         6.683502   5.689975   -3.575064 C.2        1 UNL1     0.0801
     12 C         6.025074   8.182695   -2.368494 C.ar        1 UNL1     0.0753
     13 C         5.344672   6.985765   -1.977315 C.ar        1 UNL1     0.0305
     14 C         5.56735   5.718124   -2.66909 C.2        1 UNL1     0.0924
     15 N         6.906247   4.3807   -3.781735 N.pl3        1 UNL1     -0.3170
     16 C         5.679481   3.678493   -3.513024 C.3        1 UNL1     0.1275
     17 N         4.959637   4.545893   -2.509448 N.2        1 UNL1     -0.2557
     18 C         4.843726   3.723948   -4.788622 C.3        1 UNL1     0.0016
     19 C         5.663944   3.141193   -5.928459 C.3        1 UNL1     0.0026
     20 N         6.02921   1.772631   -5.589862 N.3        1 UNL1     -0.3018
     21 C         6.783572   1.620597   -4.343992 C.3        1 UNL1     0.0026
     22 C         5.939198   2.208307   -3.211948 C.3        1 UNL1     0.0016
     23 C         6.549646   1.031452   -6.721429 C.3        1 UNL1     0.0012
     24 C         5.430684   0.736362   -7.732666 C.3        1 UNL1     -0.0339
     25 C         5.636737   1.514829   -9.04247 C.3        1 UNL1     -0.0615
     26 C         5.33371   -0.758957   -7.980452 C.3        1 UNL1     -0.0615
     27 C         5.719315   9.410141   -1.785394 C.ar        1 UNL1     0.1347
     28 C         4.728632   9.571374   -0.833237 C.ar        1 UNL1     0.0342
     29 C         4.105851   8.371638   -0.428342 C.ar        1 UNL1     0.1435
     30 C         4.426893   7.129664   -0.97757 C.ar        1 UNL1     0.0774
     31 O         3.046584   8.37556   0.410076 O.3        1 UNL1     -0.4436
     32 C         2.420077   7.09968   0.20885 C.3        1 UNL1     0.3143
     33 C         3.511798   6.204756   -0.34203 C.2        1 UNL1     0.2504
     34 C         4.175611   10.88301   -0.349626 C.3        1 UNL1     -0.0327
     35 O         2.072876   6.587071   1.50111 O.2        1 UNL1     -0.4528
     36 C         -1.012393   4.439607   0.974234 C.3        1 UNL1     0.0854
     37 C         -1.210294   3.195795   0.024871 C.3        1 UNL1     0.0236
     38 C         -1.727942   1.864598   0.754049 C.3        1 UNL1     0.1131
     39 C         -0.984653   1.338148   2.047355 C.3        1 UNL1     0.0200
     40 C         0.681942   1.313055   2.112693 C.3        1 UNL1     0.0661
     41 C         1.712918   0.662363   0.93316 C.3        1 UNL1     0.0091
     42 C         3.397388   1.170478   0.413754 C.3        1 UNL1     0.0661
     43 C         7.004618   8.088666   -3.479309 C.2        1 UNL1     0.2131
     44 O         7.347904   9.040767   -4.156357 O.2        1 UNL1     -0.2851
     45 O         6.459787   10.518897   -2.190116 O.3        1 UNL1     -0.5056
     46 O         3.614591   5.001455   -0.256267 O.2        1 UNL1     -0.2836
     47 C         5.441924   1.601556   2.072627 C.3        1 UNL1     -0.0566
     48 O         3.947583   -0.206131   0.450502 O.3        1 UNL1     -0.3909
     49 C         0.916927   0.41759   -0.329369 C.3        1 UNL1     -0.0577
     50 O         1.184649   2.555428   2.5616 O.3        1 UNL1     -0.3910
     51 O         -1.143073   4.187581   2.355116 O.3        1 UNL1     -0.3753
     52 C         -0.139618   3.156959   -1.114029 C.3        1 UNL1     -0.0564
     53 O         -2.238617   0.819962   -0.194778 O.3        1 UNL1     -0.4608
     54 C         -2.365376   -0.51535   0.085941 C.2        1 UNL1     0.3042
     55 O         -1.621282   -1.427643   -0.271666 O.2        1 UNL1     -0.2512
     56 C         -3.530134   -0.834118   0.979497 C.3        1 UNL1     0.0332
     57 C         -1.771983   1.903213   3.31975 C.3        1 UNL1     -0.0567
     58 C         1.346164   7.307273   -0.884377 C.3        1 UNL1     0.0210
     59 C         -2.331277   4.707852   2.949552 C.3        1 UNL1     0.0372
     60 C         0.269875   5.172706   0.791163 C.2        1 UNL1     -0.0208
     61 C         1.135016   5.639552   1.692456 C.2        1 UNL1     0.0882
     62 H         4.488131   2.998886   0.760352 H        1 UNL1     0.0365
     63 H         6.077722   4.024347   -0.008972 H        1 UNL1     0.0576
     64 H         8.249101   2.098001   -1.043901 H        1 UNL1     0.0615
     65 H         7.954785   5.207035   -1.115605 H        1 UNL1     0.0622
     66 H         -1.805351   5.141109   0.679007 H        1 UNL1     0.0645
     67 H         -2.087016   3.464455   -0.589734 H        1 UNL1     0.0362
     68 H         -2.709854   2.217052   1.104973 H        1 UNL1     0.0741
     69 H         -1.24356   0.298693   2.198716 H        1 UNL1     0.0359
     70 H         0.828871   0.629025   2.97035 H        1 UNL1     0.0600
     71 H         1.82531   -0.36865   1.32218 H        1 UNL1     0.0348
     72 H         3.241042   1.611301   1.409016 H        1 UNL1     0.0602
     73 H         0.388474   5.418066   -0.234986 H        1 UNL1     0.0628
     74 H         1.116972   5.386876   2.753148 H        1 UNL1     0.1022
     75 H         10.781151   3.1262   -3.214753 H        1 UNL1     0.0279
     76 H         10.637201   4.421804   -4.334569 H        1 UNL1     0.0279
     77 H         11.686729   4.539876   -2.864927 H        1 UNL1     0.0279
     78 H         8.782192   5.600756   -4.678348 H        1 UNL1     0.1553
     79 H         7.610498   4.026774   -4.402782 H        1 UNL1     0.1484
     80 H         3.918482   3.156846   -4.63024 H        1 UNL1     0.0317
     81 H         4.545332   4.751062   -5.024523 H        1 UNL1     0.0317
     82 H         6.556488   3.748371   -6.139677 H        1 UNL1     0.0428
     83 H         5.049912   3.184956   -6.828514 H        1 UNL1     0.0428
     84 H         6.975863   0.57805   -4.072086 H        1 UNL1     0.0428
     85 H         7.785143   2.066755   -4.415521 H        1 UNL1     0.0428
     86 H         6.45897   1.961406   -2.304829 H        1 UNL1     0.0317
     87 H         4.9959   1.655802   -3.122376 H        1 UNL1     0.0317
     88 H         7.311399   1.650061   -7.213719 H        1 UNL1     0.0429
     89 H         7.045526   0.106982   -6.39858 H        1 UNL1     0.0429
     90 H         4.46774   1.03118   -7.299035 H        1 UNL1     0.0308
     91 H         6.67201   1.4431   -9.38912 H        1 UNL1     0.0233
     92 H         4.970372   1.140593   -9.823184 H        1 UNL1     0.0233
     93 H         5.410949   2.582543   -8.933647 H        1 UNL1     0.0233
     94 H         4.843732   -0.951646   -8.940987 H        1 UNL1     0.0233
     95 H         6.334999   -1.197025   -8.018902 H        1 UNL1     0.0233
     96 H         4.7603   -1.257425   -7.193878 H        1 UNL1     0.0233
     97 H         3.105462   10.960518   -0.516966 H        1 UNL1     0.0280
     98 H         4.321798   11.02103   0.72965 H        1 UNL1     0.0280
     99 H         4.669735   11.71119   -0.88353 H        1 UNL1     0.0280
     100 H         7.391998   10.390132   -2.185229 H        1 UNL1     0.2922
     101 H         4.548309   1.375219   2.653901 H        1 UNL1     0.0236
     102 H         6.091129   2.313555   2.581129 H        1 UNL1     0.0236
     103 H         6.013967   0.658791   2.060266 H        1 UNL1     0.0236
     104 H         4.283507   -0.365483   1.354235 H        1 UNL1     0.2098
     105 H         0.688408   1.315851   -0.897452 H        1 UNL1     0.0234
     106 H         1.327896   -0.349818   -0.985202 H        1 UNL1     0.0234
     107 H         0.0   -0.0   0.0 H        1 UNL1     0.0234
     108 H         2.141477   2.568799   2.366484 H        1 UNL1     0.2098
     109 H         -0.186405   4.045221   -1.759408 H        1 UNL1     0.0234
     110 H         0.881963   3.029061   -0.740187 H        1 UNL1     0.0234
     111 H         -0.288769   2.297072   -1.780583 H        1 UNL1     0.0234
     112 H         -3.561618   -1.909256   1.180577 H        1 UNL1     0.0342
     113 H         -3.50302   -0.263835   1.906797 H        1 UNL1     0.0342
     114 H         -4.453545   -0.563504   0.449172 H        1 UNL1     0.0342
     115 H         -1.809803   1.168642   4.135938 H        1 UNL1     0.0234
     116 H         -1.353324   2.82556   3.72724 H        1 UNL1     0.0234
     117 H         -2.846841   2.070275   3.133441 H        1 UNL1     0.0234
     118 H         0.321943   7.228536   -0.479683 H        1 UNL1     0.0309
     119 H         1.450032   8.260017   -1.413236 H        1 UNL1     0.0309
     120 H         1.374073   6.528465   -1.654303 H        1 UNL1     0.0309
     121 H         -2.126036   4.872638   4.006944 H        1 UNL1     0.0524
     122 H         -2.627383   5.676669   2.513946 H        1 UNL1     0.0524
     123 H         -3.149871   4.003461   2.831946 H        1 UNL1     0.0524
@<TRIPOS>BOND
     1     1     2    1
     2     1    42    1
     3     2     3    2
     4     3     4    1
     5     4     5    2
     6     5     7    1
     7     6    75    1
     8     6    76    1
     9     6    77    1
    10     7     9   am
    11     9    10    1
    12    10    11    2
    13    10    43    1
    14    11    14    1
    15    11    15    1
    16    12    13   ar
    17    12    27   ar
    18    12    43    1
    19    13    14    1
    20    13    30   ar
    21    14    17    2
    22    15    16    1
    23    16    17    1
    24    16    18    1
    25    16    22    1
    26    18    19    1
    27    19    20    1
    28    20    21    1
    29    21    22    1
    30    23    24    1
    31    23    88    1
    32    23    89    1
    33    24    25    1
    34    24    26    1
    35    24    90    1
    36    25    91    1
    37    25    92    1
    38    25    93    1
    39    26    94    1
    40    26    95    1
    41    26    96    1
    42    27    28   ar
    43    28    29   ar
    44    29    30   ar
    45    29    31    1
    46    30    33    1
    47    31    32    1
    48    32    33    1
    49    32    35    1
    50    34    97    1
    51    34    98    1
    52    34    99    1
    53    35    61    1
    54    36    37    1
    55    36    60    1
    56    37    38    1
    57    38    39    1
    58    39    40    1
    59    40    41    1
    60    41    42    1
    61    45   100    1
    62    47   101    1
    63    47   102    1
    64    47   103    1
    65    48   104    1
    66    49   105    1
    67    49   106    1
    68    49   107    1
    69    50   108    1
    70    51    59    1
    71    52   109    1
    72    52   110    1
    73    52   111    1
    74    53    54    1
    75    54    55    2
    76    54    56    1
    77    56   112    1
    78    56   113    1
    79    56   114    1
    80    57   115    1
    81    57   116    1
    82    57   117    1
    83    58   118    1
    84    58   119    1
    85    58   120    1
    86    59   121    1
    87    59   122    1
    88    59   123    1
    89    60    61    2
    90     1    47    1
    91     1    62    1
    92     2    63    1
    93     3    64    1
    94     4    65    1
    95     5     6    1
    96     7     8    2
    97     9    78    1
    98    15    79    1
    99    18    80    1
   100    18    81    1
   101    19    82    1
   102    19    83    1
   103    20    23    1
   104    21    84    1
   105    21    85    1
   106    22    86    1
   107    22    87    1
   108    27    45    1
   109    28    34    1
   110    32    58    1
   111    33    46    2
   112    36    51    1
   113    36    66    1
   114    37    52    1
   115    37    67    1
   116    38    53    1
   117    38    68    1
   118    42    48    1
   119    42    72    1
   120    43    44    2
   121    60    73    1
   122    61    74    1
   123    39    69    1
   124    39    57    1
   125    40    70    1
   126    40    50    1
   127    41    71    1
   128    41    49    1
