@<TRIPOS>MOLECULE
*****
 123 128 0 0 0
SMALL
GASTEIGER

@<TRIPOS>ATOM
     1 C         2.3205   -1.412076   -4.206589 C.3        1 UNL1     0.0009
     2 C         2.489559   -0.746616   -5.928686 C.2        1 UNL1     -0.0787
     3 C         2.256874   -0.87187   -7.352138 C.2        1 UNL1     -0.0649
     4 C         2.589598   0.261914   -8.56465 C.2        1 UNL1     -0.0542
     5 C         2.290658   0.667257   -9.888814 C.2        1 UNL1     0.0115
     6 C         1.565323   0.249276   -11.197441 C.3        1 UNL1     -0.0348
     7 C         2.668714   2.157997   -10.348986 C.2        1 UNL1     0.2441
     8 O         3.645441   2.413616   -11.039774 O.2        1 UNL1     -0.2702
     9 N         1.663948   3.115681   -10.126636 N.am        1 UNL1     -0.2772
     10 C         1.781319   3.650623   -8.864344 C.2        1 UNL1     0.1049
     11 C         1.240536   2.951229   -7.88321 C.2        1 UNL1     0.0801
     12 C         3.436674   4.66027   -7.283917 C.ar        1 UNL1     0.0753
     13 C         2.953871   3.731047   -6.308184 C.ar        1 UNL1     0.0305
     14 C         1.749617   2.93623   -6.538595 C.2        1 UNL1     0.0924
     15 N         0.406433   1.898355   -7.930715 N.pl3        1 UNL1     -0.3170
     16 C         -0.022996   1.616977   -6.586591 C.3        1 UNL1     0.1275
     17 N         1.108415   2.109362   -5.717574 N.2        1 UNL1     -0.2557
     18 C         -1.210924   2.5277   -6.291442 C.3        1 UNL1     0.0016
     19 C         -2.27574   2.297177   -7.351921 C.3        1 UNL1     0.0026
     20 N         -2.669975   0.895495   -7.322011 N.3        1 UNL1     -0.3018
     21 C         -1.581796   -0.061082   -7.534604 C.3        1 UNL1     0.0026
     22 C         -0.52578   0.185325   -6.455711 C.3        1 UNL1     0.0016
     23 C         -3.879021   0.633496   -8.077133 C.3        1 UNL1     0.0012
     24 C         -4.837767   1.831509   -7.991529 C.3        1 UNL1     -0.0339
     25 C         -5.517425   1.910599   -6.614624 C.3        1 UNL1     -0.0615
     26 C         -4.097845   3.11548   -8.324263 C.3        1 UNL1     -0.0615
     27 C         4.513115   5.500628   -7.009706 C.ar        1 UNL1     0.1347
     28 C         5.159213   5.530583   -5.786714 C.ar        1 UNL1     0.0342
     29 C         4.698376   4.573105   -4.858259 C.ar        1 UNL1     0.1435
     30 C         3.644722   3.700006   -5.131631 C.ar        1 UNL1     0.0774
     31 O         5.151754   4.550072   -3.585889 O.3        1 UNL1     -0.4436
     32 C         4.157689   3.81129   -2.860005 C.3        1 UNL1     0.3143
     33 C         3.457828   2.960728   -3.900655 C.2        1 UNL1     0.2504
     34 C         6.147872   6.570041   -5.337068 C.3        1 UNL1     -0.0327
     35 O         4.84978   2.913145   -1.983879 O.2        1 UNL1     -0.4528
     36 C         2.587601   2.448229   1.028509 C.3        1 UNL1     0.0854
     37 C         1.097317   1.935084   1.085593 C.3        1 UNL1     0.0236
     38 C         0.849951   0.684426   2.058428 C.3        1 UNL1     0.1131
     39 C         1.769804   -0.596956   1.939257 C.3        1 UNL1     0.0200
     40 C         2.167359   -1.215306   0.441916 C.3        1 UNL1     0.0661
     41 C         1.078628   -1.554934   -0.813843 C.3        1 UNL1     0.0091
     42 C         1.297507   -1.472702   -2.633385 C.3        1 UNL1     0.0661
     43 C         2.696372   4.762394   -8.566018 C.2        1 UNL1     0.2131
     44 O         2.741549   5.737863   -9.293449 O.2        1 UNL1     -0.2851
     45 O         4.949738   6.34342   -8.029755 O.3        1 UNL1     -0.5056
     46 O         2.892603   1.900519   -3.751216 O.2        1 UNL1     -0.2836
     47 C         3.31583   -2.581735   -3.980318 C.3        1 UNL1     -0.0566
     48 O         0.694189   -2.804622   -2.880592 O.3        1 UNL1     -0.3909
     49 C         -0.248577   -0.901509   -0.49911 C.3        1 UNL1     -0.0577
     50 O         3.317101   -0.576137   -0.075074 O.3        1 UNL1     -0.3910
     51 O         3.54025   1.648869   1.692524 O.3        1 UNL1     -0.3753
     52 C         0.383991   2.064342   -0.299834 C.3        1 UNL1     -0.0564
     53 O         -0.598435   0.440706   2.366816 O.3        1 UNL1     -0.4608
     54 C         -1.561944   0.110453   1.450021 C.2        1 UNL1     0.3042
     55 O         -1.49327   -0.747067   0.570372 O.2        1 UNL1     -0.2512
     56 C         -2.843254   0.875537   1.622083 C.3        1 UNL1     0.0332
     57 C         2.939387   -0.453315   3.020745 C.3        1 UNL1     -0.0567
     58 C         3.154744   4.851749   -2.309481 C.3        1 UNL1     0.0210
     59 C         3.438954   0.250595   1.427127 C.3        1 UNL1     0.0372
     60 C         3.115182   2.696475   -0.340868 C.2        1 UNL1     -0.0208
     61 C         4.28592   2.368146   -0.888879 C.2        1 UNL1     0.0882
     62 H         2.810695   -0.506573   -3.829119 H        1 UNL1     0.0365
     63 H         3.089153   0.147093   -5.743645 H        1 UNL1     0.0576
     64 H         1.666458   -1.692576   -7.765607 H        1 UNL1     0.0615
     65 H         3.242069   0.987338   -8.071168 H        1 UNL1     0.0622
     66 H         2.560908   3.429181   1.523552 H        1 UNL1     0.0645
     67 H         0.557714   2.737461   1.618115 H        1 UNL1     0.0362
     68 H         1.115399   1.145559   3.021971 H        1 UNL1     0.0741
     69 H         1.269364   -1.430048   2.414574 H        1 UNL1     0.0359
     70 H         2.520168   -2.221539   0.738703 H        1 UNL1     0.0600
     71 H         0.855098   -2.617283   -0.593828 H        1 UNL1     0.0348
     72 H         2.31051   -1.517807   -2.207821 H        1 UNL1     0.0602
     73 H         2.443579   3.330739   -0.864228 H        1 UNL1     0.0628
     74 H         5.003125   1.677696   -0.443758 H        1 UNL1     0.1022
     75 H         0.833714   -0.569908   -10.995648 H        1 UNL1     0.0279
     76 H         0.944464   1.006432   -11.671064 H        1 UNL1     0.0279
     77 H         2.238149   -0.234265   -11.920763 H        1 UNL1     0.0279
     78 H         0.749589   2.672639   -10.187782 H        1 UNL1     0.1553
     79 H         -0.138277   1.655279   -8.737646 H        1 UNL1     0.1484
     80 H         -1.591131   2.305216   -5.287097 H        1 UNL1     0.0317
     81 H         -0.905511   3.579524   -6.28509 H        1 UNL1     0.0317
     82 H         -1.92348   2.588014   -8.35254 H        1 UNL1     0.0428
     83 H         -3.112786   2.95764   -7.123463 H        1 UNL1     0.0428
     84 H         -1.889288   -1.106028   -7.428081 H        1 UNL1     0.0428
     85 H         -1.180854   -0.003751   -8.556012 H        1 UNL1     0.0428
     86 H         0.185843   -0.612682   -6.559466 H        1 UNL1     0.0317
     87 H         -0.957626   0.012711   -5.462328 H        1 UNL1     0.0317
     88 H         -3.59955   0.483935   -9.128238 H        1 UNL1     0.0429
     89 H         -4.367686   -0.289641   -7.739792 H        1 UNL1     0.0429
     90 H         -5.614088   1.725804   -8.758579 H        1 UNL1     0.0308
     91 H         -4.956789   1.348837   -5.861488 H        1 UNL1     0.0233
     92 H         -5.612627   2.949404   -6.289924 H        1 UNL1     0.0233
     93 H         -6.534148   1.499543   -6.626531 H        1 UNL1     0.0233
     94 H         -3.68557   3.560968   -7.412448 H        1 UNL1     0.0233
     95 H         -3.265894   2.90255   -9.001374 H        1 UNL1     0.0233
     96 H         -4.759721   3.846369   -8.797223 H        1 UNL1     0.0233
     97 H         7.169904   6.205477   -5.379195 H        1 UNL1     0.0280
     98 H         6.122304   7.466684   -5.970024 H        1 UNL1     0.0280
     99 H         5.928094   6.863087   -4.297397 H        1 UNL1     0.0280
     100 H         5.885023   6.401027   -8.116625 H        1 UNL1     0.2922
     101 H         2.810634   -3.532384   -4.149728 H        1 UNL1     0.0236
     102 H         3.804985   -2.5462   -3.007463 H        1 UNL1     0.0236
     103 H         4.141916   -2.569736   -4.710818 H        1 UNL1     0.0236
     104 H         -0.232343   -2.662097   -3.156628 H        1 UNL1     0.2098
     105 H         -0.841497   -0.645141   -1.373486 H        1 UNL1     0.0234
     106 H         -0.859115   -1.437534   0.22742 H        1 UNL1     0.0234
     107 H         0.0   0.0   0.0 H        1 UNL1     0.0234
     108 H         3.019844   0.242151   -0.51758 H        1 UNL1     0.2098
     109 H         -0.7017   1.911632   -0.224565 H        1 UNL1     0.0234
     110 H         0.586126   3.017208   -0.800765 H        1 UNL1     0.0234
     111 H         0.741862   1.308343   -1.01141 H        1 UNL1     0.0234
     112 H         -3.686602   0.272635   1.271912 H        1 UNL1     0.0342
     113 H         -2.993402   1.196645   2.651737 H        1 UNL1     0.0342
     114 H         -2.79112   1.777216   0.996446 H        1 UNL1     0.0342
     115 H         2.543122   -0.36823   4.041981 H        1 UNL1     0.0234
     116 H         3.654379   -1.278413   3.013651 H        1 UNL1     0.0234
     117 H         3.506383   0.489419   2.932946 H        1 UNL1     0.0234
     118 H         2.828134   4.609958   -1.2829 H        1 UNL1     0.0309
     119 H         3.542585   5.875151   -2.330233 H        1 UNL1     0.0309
     120 H         2.216664   4.871455   -2.874922 H        1 UNL1     0.0309
     121 H         2.389785   -0.027884   1.522269 H        1 UNL1     0.0524
     122 H         3.758765   -0.005149   0.403236 H        1 UNL1     0.0524
     123 H         4.041541   -0.311008   2.135354 H        1 UNL1     0.0524
@<TRIPOS>BOND
     1     1     2    1
     2     1    42    1
     3     2     3    2
     4     3     4    1
     5     4     5    2
     6     5     7    1
     7     6    75    1
     8     6    76    1
     9     6    77    1
    10     7     9   am
    11     9    10    1
    12    10    11    2
    13    10    43    1
    14    11    14    1
    15    11    15    1
    16    12    13   ar
    17    12    27   ar
    18    12    43    1
    19    13    14    1
    20    13    30   ar
    21    14    17    2
    22    15    16    1
    23    16    17    1
    24    16    18    1
    25    16    22    1
    26    18    19    1
    27    19    20    1
    28    20    21    1
    29    21    22    1
    30    23    24    1
    31    23    88    1
    32    23    89    1
    33    24    25    1
    34    24    26    1
    35    24    90    1
    36    25    91    1
    37    25    92    1
    38    25    93    1
    39    26    94    1
    40    26    95    1
    41    26    96    1
    42    27    28   ar
    43    28    29   ar
    44    29    30   ar
    45    29    31    1
    46    30    33    1
    47    31    32    1
    48    32    33    1
    49    32    35    1
    50    34    97    1
    51    34    98    1
    52    34    99    1
    53    35    61    1
    54    36    37    1
    55    36    60    1
    56    37    38    1
    57    38    39    1
    58    39    40    1
    59    40    41    1
    60    41    42    1
    61    45   100    1
    62    47   101    1
    63    47   102    1
    64    47   103    1
    65    48   104    1
    66    49   105    1
    67    49   106    1
    68    49   107    1
    69    50   108    1
    70    51    59    1
    71    52   109    1
    72    52   110    1
    73    52   111    1
    74    53    54    1
    75    54    55    2
    76    54    56    1
    77    56   112    1
    78    56   113    1
    79    56   114    1
    80    57   115    1
    81    57   116    1
    82    57   117    1
    83    58   118    1
    84    58   119    1
    85    58   120    1
    86    59   121    1
    87    59   122    1
    88    59   123    1
    89    60    61    2
    90     1    47    1
    91     1    62    1
    92     2    63    1
    93     3    64    1
    94     4    65    1
    95     5     6    1
    96     7     8    2
    97     9    78    1
    98    15    79    1
    99    18    80    1
   100    18    81    1
   101    19    82    1
   102    19    83    1
   103    20    23    1
   104    21    84    1
   105    21    85    1
   106    22    86    1
   107    22    87    1
   108    27    45    1
   109    28    34    1
   110    32    58    1
   111    33    46    2
   112    36    51    1
   113    36    66    1
   114    37    52    1
   115    37    67    1
   116    38    53    1
   117    38    68    1
   118    42    48    1
   119    42    72    1
   120    43    44    2
   121    60    73    1
   122    61    74    1
   123    39    69    1
   124    39    57    1
   125    40    70    1
   126    40    50    1
   127    41    71    1
   128    41    49    1
