@<TRIPOS>MOLECULE
*****
 123 128 0 0 0
SMALL
GASTEIGER

@<TRIPOS>ATOM
     1 C         -0.203393   1.99946   3.745074 C.3        1 UNL1     0.0009
     2 C         -1.683703   2.201483   4.842756 C.2        1 UNL1     -0.0787
     3 C         -2.738954   3.028703   5.388832 C.2        1 UNL1     -0.0649
     4 C         -4.021037   2.554879   6.387887 C.2        1 UNL1     -0.0542
     5 C         -5.311594   2.897154   6.861583 C.2        1 UNL1     0.0115
     6 C         -6.372555   4.03088   6.910065 C.3        1 UNL1     -0.0348
     7 C         -6.223359   1.755178   7.526085 C.2        1 UNL1     0.2441
     8 O         -6.372387   1.64224   8.735036 O.2        1 UNL1     -0.2702
     9 N         -7.045011   1.057966   6.623348 N.am        1 UNL1     -0.2772
     10 C         -6.370751   -0.017697   6.092644 C.2        1 UNL1     0.1049
     11 C         -5.576884   0.240324   5.069208 C.2        1 UNL1     0.0801
     12 C         -4.973363   -1.992713   6.728212 C.ar        1 UNL1     0.0753
     13 C         -4.036814   -1.548848   5.74106 C.ar        1 UNL1     0.0305
     14 C         -4.371637   -0.492028   4.78918 C.2        1 UNL1     0.0924
     15 N         -5.47044   1.348773   4.31652 N.pl3        1 UNL1     -0.3170
     16 C         -4.581421   1.054442   3.224152 C.3        1 UNL1     0.1275
     17 N         -3.673858   -0.027481   3.756597 N.2        1 UNL1     -0.2557
     18 C         -5.415788   0.404209   2.12473 C.3        1 UNL1     0.0016
     19 C         -6.561719   1.337416   1.76758 C.3        1 UNL1     0.0026
     20 N         -6.008209   2.608898   1.322622 N.3        1 UNL1     -0.3018
     21 C         -5.13994   3.281896   2.290894 C.3        1 UNL1     0.0026
     22 C         -3.993416   2.328452   2.631954 C.3        1 UNL1     0.0016
     23 C         -6.991443   3.457982   0.68001 C.3        1 UNL1     0.0012
     24 C         -7.390822   2.880346   -0.686954 C.3        1 UNL1     -0.0339
     25 C         -7.695269   3.995035   -1.701271 C.3        1 UNL1     -0.0615
     26 C         -6.307276   1.94432   -1.193475 C.3        1 UNL1     -0.0615
     27 C         -4.692747   -3.080352   7.551872 C.ar        1 UNL1     0.1347
     28 C         -3.530589   -3.824715   7.455109 C.ar        1 UNL1     0.0342
     29 C         -2.602325   -3.339448   6.509589 C.ar        1 UNL1     0.1435
     30 C         -2.854462   -2.229344   5.702547 C.ar        1 UNL1     0.0774
     31 O         -1.470968   -4.01855   6.220006 O.3        1 UNL1     -0.4436
     32 C         -1.056349   -3.505526   4.94495 C.3        1 UNL1     0.3143
     33 C         -1.692299   -2.133811   4.844051 C.2        1 UNL1     0.2504
     34 C         -3.270858   -5.145081   8.125387 C.3        1 UNL1     -0.0327
     35 O         0.361063   -3.304688   5.007069 O.2        1 UNL1     -0.4528
     36 C         1.640368   -3.814642   1.469921 C.3        1 UNL1     0.0854
     37 C         1.225658   -3.069253   0.143296 C.3        1 UNL1     0.0236
     38 C         2.43959   -2.402236   -0.664912 C.3        1 UNL1     0.1131
     39 C         3.460164   -1.457952   0.089427 C.3        1 UNL1     0.0200
     40 C         2.911224   -0.316098   1.174448 C.3        1 UNL1     0.0661
     41 C         1.671788   0.807311   0.892733 C.3        1 UNL1     0.0091
     42 C         0.44729   1.542049   2.044325 C.3        1 UNL1     0.0661
     43 C         -6.290951   -1.312311   6.785434 C.2        1 UNL1     0.2131
     44 O         -7.286947   -1.814168   7.274177 O.2        1 UNL1     -0.2851
     45 O         -5.638396   -3.41925   8.517447 O.3        1 UNL1     -0.5056
     46 O         -1.312835   -1.171776   4.214488 O.2        1 UNL1     -0.2836
     47 C         1.040515   2.669274   4.388522 C.3        1 UNL1     -0.0566
     48 O         0.667725   2.930859   1.573442 O.3        1 UNL1     -0.3909
     49 C         0.916688   0.398851   -0.352449 C.3        1 UNL1     -0.0577
     50 O         2.770993   -0.876967   2.464209 O.3        1 UNL1     -0.3910
     51 O         2.98255   -3.656999   1.871326 O.3        1 UNL1     -0.3753
     52 C         -0.166023   -2.369573   0.279756 C.3        1 UNL1     -0.0564
     53 O         2.084058   -2.014305   -2.070413 O.3        1 UNL1     -0.4608
     54 C         2.530216   -0.895158   -2.723394 C.2        1 UNL1     0.3042
     55 O         3.20926   -0.849395   -3.748403 O.2        1 UNL1     -0.2512
     56 C         2.060361   0.390118   -2.103703 C.3        1 UNL1     0.0332
     57 C         4.716357   -2.350286   0.518255 C.3        1 UNL1     -0.0567
     58 C         -1.687532   -4.427876   3.876115 C.3        1 UNL1     0.0210
     59 C         3.798899   -4.814843   1.701508 C.3        1 UNL1     0.0372
     60 C         0.797959   -3.502149   2.656453 C.2        1 UNL1     -0.0208
     61 C         1.144768   -3.226812   3.91449 C.2        1 UNL1     0.0882
     62 H         -0.166397   0.939064   4.022385 H        1 UNL1     0.0365
     63 H         -1.723988   1.216967   5.313472 H        1 UNL1     0.0576
     64 H         -2.893551   4.056025   5.051464 H        1 UNL1     0.0615
     65 H         -3.730713   1.557482   6.729051 H        1 UNL1     0.0622
     66 H         1.472057   -4.878855   1.252739 H        1 UNL1     0.0645
     67 H         0.928252   -3.883617   -0.54002 H        1 UNL1     0.0362
     68 H         3.011973   -3.307814   -0.917554 H        1 UNL1     0.0741
     69 H         3.984454   -0.857369   -0.641892 H        1 UNL1     0.0359
     70 H         3.810486   0.324991   1.247889 H        1 UNL1     0.0600
     71 H         2.267319   1.661491   0.515009 H        1 UNL1     0.0348
     72 H         1.260949   1.153869   2.674079 H        1 UNL1     0.0602
     73 H         -0.223824   -3.647766   2.407451 H        1 UNL1     0.0628
     74 H         2.162169   -3.0067   4.239579 H        1 UNL1     0.1022
     75 H         -5.898665   4.999037   7.201845 H        1 UNL1     0.0279
     76 H         -6.857872   4.281688   5.969517 H        1 UNL1     0.0279
     77 H         -7.103841   3.894605   7.720221 H        1 UNL1     0.0279
     78 H         -7.301416   1.669934   5.851449 H        1 UNL1     0.1553
     79 H         -6.179274   2.057169   4.26492 H        1 UNL1     0.1484
     80 H         -4.773847   0.208024   1.257441 H        1 UNL1     0.0317
     81 H         -5.806135   -0.565575   2.451531 H        1 UNL1     0.0317
     82 H         -7.249762   1.479732   2.613898 H        1 UNL1     0.0428
     83 H         -7.1448   0.853618   0.983356 H        1 UNL1     0.0428
     84 H         -4.674254   4.193293   1.903204 H        1 UNL1     0.0428
     85 H         -5.698789   3.622503   3.1735 H        1 UNL1     0.0428
     86 H         -3.311726   2.899297   3.234798 H        1 UNL1     0.0317
     87 H         -3.409886   2.106387   1.730135 H        1 UNL1     0.0317
     88 H         -7.883394   3.491855   1.319205 H        1 UNL1     0.0429
     89 H         -6.625985   4.48842   0.582986 H        1 UNL1     0.0429
     90 H         -8.288592   2.262357   -0.567326 H        1 UNL1     0.0308
     91 H         -6.92713   4.773856   -1.678833 H        1 UNL1     0.0233
     92 H         -7.764289   3.588427   -2.71296 H        1 UNL1     0.0233
     93 H         -8.65459   4.488605   -1.503974 H        1 UNL1     0.0233
     94 H         -6.377786   1.838582   -2.281448 H        1 UNL1     0.0233
     95 H         -5.320561   2.352692   -0.957705 H        1 UNL1     0.0233
     96 H         -6.395162   0.951519   -0.743374 H        1 UNL1     0.0233
     97 H         -3.046802   -5.929038   7.408142 H        1 UNL1     0.0280
     98 H         -2.408348   -5.10248   8.803265 H        1 UNL1     0.0280
     99 H         -4.160527   -5.447804   8.701532 H        1 UNL1     0.0280
     100 H         -5.940925   -2.697125   9.039592 H        1 UNL1     0.2922
     101 H         1.700112   1.903986   4.797084 H        1 UNL1     0.0236
     102 H         0.784737   3.426498   5.128909 H        1 UNL1     0.0236
     103 H         1.656217   3.200961   3.643934 H        1 UNL1     0.0236
     104 H         1.263871   2.889027   0.800247 H        1 UNL1     0.2098
     105 H         0.685092   1.219542   -1.02672 H        1 UNL1     0.0234
     106 H         1.361977   -0.429052   -0.90401 H        1 UNL1     0.0234
     107 H         0.0   -0.0   0.0 H        1 UNL1     0.0234
     108 H         3.309637   -1.691296   2.486562 H        1 UNL1     0.2098
     109 H         -0.972181   -3.085152   0.493691 H        1 UNL1     0.0234
     110 H         -0.17507   -1.572171   1.03063 H        1 UNL1     0.0234
     111 H         -0.457237   -1.862995   -0.650039 H        1 UNL1     0.0234
     112 H         2.430416   1.240428   -2.684546 H        1 UNL1     0.0342
     113 H         0.976334   0.425581   -2.006379 H        1 UNL1     0.0342
     114 H         2.487703   0.460507   -1.093956 H        1 UNL1     0.0342
     115 H         5.557712   -1.732794   0.861787 H        1 UNL1     0.0234
     116 H         4.498163   -3.075021   1.305148 H        1 UNL1     0.0234
     117 H         5.179556   -2.891722   -0.3245 H        1 UNL1     0.0234
     118 H         -0.929799   -5.042069   3.358801 H        1 UNL1     0.0309
     119 H         -2.465387   -5.08374   4.27983 H        1 UNL1     0.0309
     120 H         -2.157149   -3.866619   3.060911 H        1 UNL1     0.0309
     121 H         3.931539   -5.271412   2.681971 H        1 UNL1     0.0524
     122 H         3.327858   -5.566422   1.046308 H        1 UNL1     0.0524
     123 H         4.762535   -4.537324   1.283798 H        1 UNL1     0.0524
@<TRIPOS>BOND
     1     1     2    1
     2     1    42    1
     3     2     3    2
     4     3     4    1
     5     4     5    2
     6     5     7    1
     7     6    75    1
     8     6    76    1
     9     6    77    1
    10     7     9   am
    11     9    10    1
    12    10    11    2
    13    10    43    1
    14    11    14    1
    15    11    15    1
    16    12    13   ar
    17    12    27   ar
    18    12    43    1
    19    13    14    1
    20    13    30   ar
    21    14    17    2
    22    15    16    1
    23    16    17    1
    24    16    18    1
    25    16    22    1
    26    18    19    1
    27    19    20    1
    28    20    21    1
    29    21    22    1
    30    23    24    1
    31    23    88    1
    32    23    89    1
    33    24    25    1
    34    24    26    1
    35    24    90    1
    36    25    91    1
    37    25    92    1
    38    25    93    1
    39    26    94    1
    40    26    95    1
    41    26    96    1
    42    27    28   ar
    43    28    29   ar
    44    29    30   ar
    45    29    31    1
    46    30    33    1
    47    31    32    1
    48    32    33    1
    49    32    35    1
    50    34    97    1
    51    34    98    1
    52    34    99    1
    53    35    61    1
    54    36    37    1
    55    36    60    1
    56    37    38    1
    57    38    39    1
    58    39    40    1
    59    40    41    1
    60    41    42    1
    61    45   100    1
    62    47   101    1
    63    47   102    1
    64    47   103    1
    65    48   104    1
    66    49   105    1
    67    49   106    1
    68    49   107    1
    69    50   108    1
    70    51    59    1
    71    52   109    1
    72    52   110    1
    73    52   111    1
    74    53    54    1
    75    54    55    2
    76    54    56    1
    77    56   112    1
    78    56   113    1
    79    56   114    1
    80    57   115    1
    81    57   116    1
    82    57   117    1
    83    58   118    1
    84    58   119    1
    85    58   120    1
    86    59   121    1
    87    59   122    1
    88    59   123    1
    89    60    61    2
    90     1    47    1
    91     1    62    1
    92     2    63    1
    93     3    64    1
    94     4    65    1
    95     5     6    1
    96     7     8    2
    97     9    78    1
    98    15    79    1
    99    18    80    1
   100    18    81    1
   101    19    82    1
   102    19    83    1
   103    20    23    1
   104    21    84    1
   105    21    85    1
   106    22    86    1
   107    22    87    1
   108    27    45    1
   109    28    34    1
   110    32    58    1
   111    33    46    2
   112    36    51    1
   113    36    66    1
   114    37    52    1
   115    37    67    1
   116    38    53    1
   117    38    68    1
   118    42    48    1
   119    42    72    1
   120    43    44    2
   121    60    73    1
   122    61    74    1
   123    39    69    1
   124    39    57    1
   125    40    70    1
   126    40    50    1
   127    41    71    1
   128    41    49    1
