@<TRIPOS>MOLECULE
*****
 123 128 0 0 0
SMALL
GASTEIGER

@<TRIPOS>ATOM
     1 C         5.153815   1.857126   -0.032075 C.3        1 UNL1     0.0009
     2 C         6.712473   2.074086   0.948002 C.2        1 UNL1     -0.0787
     3 C         7.607966   2.915551   1.713558 C.2        1 UNL1     -0.0649
     4 C         8.998341   2.454121   2.562261 C.2        1 UNL1     -0.0542
     5 C         9.907579   2.81724   3.586228 C.2        1 UNL1     0.0115
     6 C         10.343164   3.973342   4.528044 C.3        1 UNL1     -0.0348
     7 C         10.847654   1.685135   4.227777 C.2        1 UNL1     0.2441
     8 O         12.028278   1.555827   3.934635 O.2        1 UNL1     -0.2702
     9 N         10.296494   1.021194   5.337532 N.am        1 UNL1     -0.2772
     10 C         9.550791   -0.060396   4.928372 C.2        1 UNL1     0.1049
     11 C         8.311982   0.19657   4.5495 C.2        1 UNL1     0.0801
     12 C         9.626057   -2.076113   3.448996 C.ar        1 UNL1     0.0753
     13 C         8.371039   -1.637139   2.919052 C.ar        1 UNL1     0.0305
     14 C         7.611322   -0.557741   3.545774 C.2        1 UNL1     0.0924
     15 N         7.579498   1.314512   4.691627 N.pl3        1 UNL1     -0.3170
     16 C         6.238127   1.018345   4.263534 C.3        1 UNL1     0.1275
     17 N         6.400084   -0.092041   3.254308 N.2        1 UNL1     -0.2557
     18 C         5.508412   0.404857   5.454689 C.3        1 UNL1     0.0016
     19 C         5.59477   1.369025   6.627085 C.3        1 UNL1     0.0026
     20 N         4.98948   2.634973   6.237178 N.3        1 UNL1     -0.3018
     21 C         5.584806   3.272602   5.061004 C.3        1 UNL1     0.0026
     22 C         5.483078   2.288455   3.894385 C.3        1 UNL1     0.0016
     23 C         4.750334   3.51609   7.362827 C.3        1 UNL1     0.0012
     24 C         4.853777   4.986305   6.927483 C.3        1 UNL1     -0.0339
     25 C         5.432819   5.865273   8.048278 C.3        1 UNL1     -0.0615
     26 C         5.671687   5.095555   5.652388 C.3        1 UNL1     -0.0615
     27 C         10.28547   -3.18302   2.919797 C.ar        1 UNL1     0.1347
     28 C         9.7712   -3.951369   1.890615 C.ar        1 UNL1     0.0342
     29 C         8.558303   -3.471504   1.35231 C.ar        1 UNL1     0.1435
     30 C         7.904295   -2.343046   1.84837 C.ar        1 UNL1     0.0774
     31 O         7.87573   -4.170786   0.419515 O.3        1 UNL1     -0.4436
     32 C         6.540653   -3.646373   0.478106 C.3        1 UNL1     0.3143
     33 C         6.685508   -2.259389   1.070985 C.2        1 UNL1     0.2504
     34 C         10.293378   -5.287947   1.442296 C.3        1 UNL1     -0.0327
     35 O         6.089465   -3.478151   -0.871481 O.2        1 UNL1     -0.4528
     36 C         2.325365   -3.958646   -0.777875 C.3        1 UNL1     0.0854
     37 C         1.242602   -3.182669   0.066522 C.3        1 UNL1     0.0236
     38 C         0.056199   -2.529717   -0.792458 C.3        1 UNL1     0.1131
     39 C         0.399053   -1.620802   -2.040895 C.3        1 UNL1     0.0200
     40 C         1.617179   -0.484878   -1.949883 C.3        1 UNL1     0.0661
     41 C         1.80896   0.670267   -0.7225 C.3        1 UNL1     0.0091
     42 C         3.329601   1.41317   -0.014581 C.3        1 UNL1     0.0661
     43 C         10.158969   -1.367598   4.639068 C.2        1 UNL1     0.2131
     44 O         10.970047   -1.855086   5.405386 O.2        1 UNL1     -0.2851
     45 O         11.524395   -3.516511   3.4632 O.3        1 UNL1     -0.5056
     46 O         5.968475   -1.295887   0.918077 O.2        1 UNL1     -0.2836
     47 C         5.310796   2.488518   -1.441573 C.3        1 UNL1     -0.0566
     48 O         2.820954   2.804232   -0.087656 O.3        1 UNL1     -0.3909
     49 C         0.916464   0.299078   0.440756 C.3        1 UNL1     -0.0577
     50 O         2.866787   -1.063461   -2.268387 O.3        1 UNL1     -0.3910
     51 O         2.217463   -3.837467   -2.178269 O.3        1 UNL1     -0.3753
     52 C         1.876259   -2.454528   1.29666 C.3        1 UNL1     -0.0564
     53 O         -1.124037   -2.111091   0.034657 O.3        1 UNL1     -0.4608
     54 C         -2.337556   -1.708103   -0.458196 C.2        1 UNL1     0.3042
     55 O         -2.76333   -0.557031   -0.54531 O.2        1 UNL1     -0.2512
     56 C         -3.176408   -2.836347   -0.987447 C.3        1 UNL1     0.0332
     57 C         0.340135   -2.547735   -3.343009 C.3        1 UNL1     -0.0567
     58 C         5.764316   -4.536892   1.476007 C.3        1 UNL1     0.0210
     59 C         3.240923   -4.501685   -2.918004 C.3        1 UNL1     0.0372
     60 C         3.737916   -3.646897   -0.427627 C.2        1 UNL1     -0.0208
     61 C         4.788519   -3.399907   -1.211192 C.2        1 UNL1     0.0882
     62 H         5.391526   0.791785   -0.138154 H        1 UNL1     0.0365
     63 H         7.158986   1.083159   0.842363 H        1 UNL1     0.0576
     64 H         7.356355   3.951425   1.951808 H        1 UNL1     0.0615
     65 H         9.204816   1.445078   2.195268 H        1 UNL1     0.0622
     66 H         2.175722   -5.015166   -0.514403 H        1 UNL1     0.0645
     67 H         0.706437   -3.978957   0.61151 H        1 UNL1     0.0362
     68 H         -0.392192   -3.443559   -1.211219 H        1 UNL1     0.0741
     69 H         -0.467679   -1.020175   -2.28262 H        1 UNL1     0.0359
     70 H         1.366377   0.134766   -2.832039 H        1 UNL1     0.0600
     71 H         1.248241   1.517041   -1.164684 H        1 UNL1     0.0348
     72 H         3.621161   0.996764   -0.989729 H        1 UNL1     0.0602
     73 H         3.872656   -3.765669   0.618789 H        1 UNL1     0.0628
     74 H         4.726871   -3.207813   -2.28289 H        1 UNL1     0.1022
     75 H         10.669195   3.571207   5.517501 H        1 UNL1     0.0279
     76 H         11.207632   4.55453   4.215018 H        1 UNL1     0.0279
     77 H         9.504272   4.620672   4.822873 H        1 UNL1     0.0279
     78 H         9.673213   1.651228   5.838187 H        1 UNL1     0.1553
     79 H         7.791811   2.039246   5.352397 H        1 UNL1     0.1484
     80 H         4.466715   0.208621   5.173397 H        1 UNL1     0.0317
     81 H         5.946882   -0.561208   5.726926 H        1 UNL1     0.0317
     82 H         6.633123   1.512781   6.960355 H        1 UNL1     0.0428
     83 H         5.069765   0.911178   7.46601 H        1 UNL1     0.0428
     84 H         5.061977   4.179621   4.741977 H        1 UNL1     0.0428
     85 H         6.611901   3.611107   5.255446 H        1 UNL1     0.0428
     86 H         5.803992   2.834084   3.026462 H        1 UNL1     0.0317
     87 H         4.430025   2.068212   3.680684 H        1 UNL1     0.0317
     88 H         3.73266   3.33138   7.730954 H        1 UNL1     0.0429
     89 H         5.436457   3.299334   8.191697 H        1 UNL1     0.0429
     90 H         3.853478   5.357194   6.674388 H        1 UNL1     0.0308
     91 H         6.314189   5.402044   8.50183 H        1 UNL1     0.0233
     92 H         5.70349   6.851792   7.664707 H        1 UNL1     0.0233
     93 H         4.712793   6.038692   8.85718 H        1 UNL1     0.0233
     94 H         6.075173   6.108551   5.548108 H        1 UNL1     0.0233
     95 H         6.514126   4.399146   5.688053 H        1 UNL1     0.0233
     96 H         5.066181   4.872183   4.769531 H        1 UNL1     0.0233
     97 H         9.685427   -6.107986   1.81265 H        1 UNL1     0.0280
     98 H         10.295863   -5.385669   0.348815 H        1 UNL1     0.0280
     99 H         11.32222   -5.425538   1.813305 H        1 UNL1     0.0280
     100 H         11.501326   -3.755237   4.3732 H        1 UNL1     0.2922
     101 H         5.117784   1.735481   -2.205339 H        1 UNL1     0.0236
     102 H         6.271963   2.980692   -1.586161 H        1 UNL1     0.0236
     103 H         4.56117   3.275439   -1.628679 H        1 UNL1     0.0236
     104 H         3.571028   3.402656   0.097409 H        1 UNL1     0.2098
     105 H         1.282889   -0.529665   1.041365 H        1 UNL1     0.0234
     106 H         0.633014   1.133805   1.081703 H        1 UNL1     0.0234
     107 H         -0.0   0.0   0.0 H        1 UNL1     0.0234
     108 H         3.558313   -0.435565   -1.983246 H        1 UNL1     0.2098
     109 H         1.367453   -1.508154   1.527323 H        1 UNL1     0.0234
     110 H         1.912178   -3.079738   2.195307 H        1 UNL1     0.0234
     111 H         2.926424   -2.190532   1.113891 H        1 UNL1     0.0234
     112 H         -4.118748   -2.445578   -1.383226 H        1 UNL1     0.0342
     113 H         -2.649045   -3.420768   -1.739899 H        1 UNL1     0.0342
     114 H         -3.415035   -3.50798   -0.151307 H        1 UNL1     0.0342
     115 H         -0.352608   -2.149238   -4.096995 H        1 UNL1     0.0234
     116 H         1.306979   -2.692232   -3.829201 H        1 UNL1     0.0234
     117 H         -0.098703   -3.542764   -3.155184 H        1 UNL1     0.0234
     118 H         5.227226   -5.357283   0.968562 H        1 UNL1     0.0309
     119 H         6.400317   -4.957159   2.261551 H        1 UNL1     0.0309
     120 H         4.965353   -3.992753   1.991447 H        1 UNL1     0.0309
     121 H         3.34026   -3.990721   -3.875295 H        1 UNL1     0.0524
     122 H         4.220104   -4.453978   -2.413063 H        1 UNL1     0.0524
     123 H         2.975497   -5.543335   -3.074878 H        1 UNL1     0.0524
@<TRIPOS>BOND
     1     1     2    1
     2     1    42    1
     3     2     3    2
     4     3     4    1
     5     4     5    2
     6     5     7    1
     7     6    75    1
     8     6    76    1
     9     6    77    1
    10     7     9   am
    11     9    10    1
    12    10    11    2
    13    10    43    1
    14    11    14    1
    15    11    15    1
    16    12    13   ar
    17    12    27   ar
    18    12    43    1
    19    13    14    1
    20    13    30   ar
    21    14    17    2
    22    15    16    1
    23    16    17    1
    24    16    18    1
    25    16    22    1
    26    18    19    1
    27    19    20    1
    28    20    21    1
    29    21    22    1
    30    23    24    1
    31    23    88    1
    32    23    89    1
    33    24    25    1
    34    24    26    1
    35    24    90    1
    36    25    91    1
    37    25    92    1
    38    25    93    1
    39    26    94    1
    40    26    95    1
    41    26    96    1
    42    27    28   ar
    43    28    29   ar
    44    29    30   ar
    45    29    31    1
    46    30    33    1
    47    31    32    1
    48    32    33    1
    49    32    35    1
    50    34    97    1
    51    34    98    1
    52    34    99    1
    53    35    61    1
    54    36    37    1
    55    36    60    1
    56    37    38    1
    57    38    39    1
    58    39    40    1
    59    40    41    1
    60    41    42    1
    61    45   100    1
    62    47   101    1
    63    47   102    1
    64    47   103    1
    65    48   104    1
    66    49   105    1
    67    49   106    1
    68    49   107    1
    69    50   108    1
    70    51    59    1
    71    52   109    1
    72    52   110    1
    73    52   111    1
    74    53    54    1
    75    54    55    2
    76    54    56    1
    77    56   112    1
    78    56   113    1
    79    56   114    1
    80    57   115    1
    81    57   116    1
    82    57   117    1
    83    58   118    1
    84    58   119    1
    85    58   120    1
    86    59   121    1
    87    59   122    1
    88    59   123    1
    89    60    61    2
    90     1    47    1
    91     1    62    1
    92     2    63    1
    93     3    64    1
    94     4    65    1
    95     5     6    1
    96     7     8    2
    97     9    78    1
    98    15    79    1
    99    18    80    1
   100    18    81    1
   101    19    82    1
   102    19    83    1
   103    20    23    1
   104    21    84    1
   105    21    85    1
   106    22    86    1
   107    22    87    1
   108    27    45    1
   109    28    34    1
   110    32    58    1
   111    33    46    2
   112    36    51    1
   113    36    66    1
   114    37    52    1
   115    37    67    1
   116    38    53    1
   117    38    68    1
   118    42    48    1
   119    42    72    1
   120    43    44    2
   121    60    73    1
   122    61    74    1
   123    39    69    1
   124    39    57    1
   125    40    70    1
   126    40    50    1
   127    41    71    1
   128    41    49    1
