@<TRIPOS>MOLECULE
*****
 123 128 0 0 0
SMALL
GASTEIGER

@<TRIPOS>ATOM
     1 C         4.937428   2.366   -0.152056 C.3        1 UNL1     0.0009
     2 C         6.123437   3.383776   -1.149328 C.2        1 UNL1     -0.0787
     3 C         7.292776   3.477762   -1.997774 C.2        1 UNL1     -0.0649
     4 C         7.893274   4.845748   -2.794249 C.2        1 UNL1     -0.0542
     5 C         8.718061   5.305759   -3.850277 C.2        1 UNL1     0.0115
     6 C         9.76907   4.866471   -4.906557 C.3        1 UNL1     -0.0348
     7 C         8.543993   6.814117   -4.371376 C.2        1 UNL1     0.2441
     8 O         9.311896   7.716266   -4.066452 O.2        1 UNL1     -0.2702
     9 N         7.606637   6.975147   -5.406549 N.am        1 UNL1     -0.2772
     10 C         6.349142   7.182264   -4.88777 C.2        1 UNL1     0.1049
     11 C         5.678489   6.099795   -4.537476 C.2        1 UNL1     0.0801
     12 C         5.096732   8.548659   -3.207958 C.ar        1 UNL1     0.0753
     13 C         4.553237   7.315312   -2.726215 C.ar        1 UNL1     0.0305
     14 C         4.725794   6.064251   -3.461146 C.2        1 UNL1     0.0924
     15 N         5.932711   4.805232   -4.794393 N.pl3        1 UNL1     -0.3170
     16 C         4.805004   4.036985   -4.337963 C.3        1 UNL1     0.1275
     17 N         4.214705   4.8604   -3.219367 N.2        1 UNL1     -0.2557
     18 C         3.770478   4.042499   -5.459314 C.3        1 UNL1     0.0016
     19 C         4.422429   3.509256   -6.725095 C.3        1 UNL1     0.0026
     20 N         4.909425   2.160987   -6.468128 N.3        1 UNL1     -0.3018
     21 C         5.864489   2.044788   -5.364173 C.3        1 UNL1     0.0026
     22 C         5.187206   2.58171   -4.102073 C.3        1 UNL1     0.0016
     23 C         5.275714   1.453392   -7.678825 C.3        1 UNL1     0.0012
     24 C         4.023324   1.102569   -8.497481 C.3        1 UNL1     -0.0339
     25 C         3.822201   2.082254   -9.66531 C.3        1 UNL1     -0.0615
     26 C         4.103141   -0.334945   -8.98118 C.3        1 UNL1     -0.0615
     27 C         4.826646   9.755547   -2.567183 C.ar        1 UNL1     0.1347
     28 C         3.998137   9.859459   -1.464085 C.ar        1 UNL1     0.0342
     29 C         3.513797   8.626355   -0.978253 C.ar        1 UNL1     0.1435
     30 C         3.805246   7.405647   -1.588294 C.ar        1 UNL1     0.0774
     31 O         2.60735   8.569949   0.021836 O.3        1 UNL1     -0.4436
     32 C         2.024102   7.263027   -0.090632 C.3        1 UNL1     0.3143
     33 C         3.056297   6.430327   -0.823708 C.2        1 UNL1     0.2504
     34 C         3.463769   11.137509   -0.880014 C.3        1 UNL1     -0.0327
     35 O         1.920496   6.727337   1.234341 O.2        1 UNL1     -0.4528
     36 C         -1.092542   4.419133   1.190948 C.3        1 UNL1     0.0854
     37 C         -1.377723   3.170269   0.270875 C.3        1 UNL1     0.0236
     38 C         -1.698514   1.810259   1.057774 C.3        1 UNL1     0.1131
     39 C         -0.726967   1.319405   2.205566 C.3        1 UNL1     0.0200
     40 C         0.926833   1.383739   1.997608 C.3        1 UNL1     0.0661
     41 C         1.783466   0.794155   0.657392 C.3        1 UNL1     0.0091
     42 C         3.331198   1.394212   -0.123545 C.3        1 UNL1     0.0661
     43 C         5.884772   8.511886   -4.4649 C.2        1 UNL1     0.2131
     44 O         6.062202   9.483766   -5.176732 O.2        1 UNL1     -0.2851
     45 O         5.431722   10.904133   -3.073217 O.3        1 UNL1     -0.5056
     46 O         3.234673   5.233966   -0.771206 O.2        1 UNL1     -0.2836
     47 C         5.59428   1.928034   1.184623 C.3        1 UNL1     -0.0566
     48 O         3.951375   0.049058   -0.194647 O.3        1 UNL1     -0.3909
     49 C         0.805464   0.51195   -0.461253 C.3        1 UNL1     -0.0577
     50 O         1.430427   2.649557   2.374199 O.3        1 UNL1     -0.3910
     51 O         -0.982001   4.154942   2.571316 O.3        1 UNL1     -0.3753
     52 C         -0.507399   3.193624   -1.027947 C.3        1 UNL1     -0.0564
     53 O         -2.302166   0.743454   0.19183 O.3        1 UNL1     -0.4608
     54 C         -2.295917   -0.599601   0.464032 C.2        1 UNL1     0.3042
     55 O         -1.675971   -1.479562   -0.131932 O.2        1 UNL1     -0.2512
     56 C         -3.111319   -0.972754   1.669267 C.3        1 UNL1     0.0332
     57 C         -1.323891   1.836224   3.59652 C.3        1 UNL1     -0.0567
     58 C         0.77632   7.416905   -0.991127 C.3        1 UNL1     0.0210
     59 C         -1.317839   5.251489   3.420235 C.3        1 UNL1     0.0372
     60 C         0.102242   5.220872   0.810335 C.2        1 UNL1     -0.0208
     61 C         1.077587   5.729985   1.564159 C.2        1 UNL1     0.0882
     62 H         4.366608   3.277252   0.063575 H        1 UNL1     0.0365
     63 H         5.75284   4.389794   -0.94183 H        1 UNL1     0.0576
     64 H         7.823441   2.587182   -2.341821 H        1 UNL1     0.0615
     65 H         7.358803   5.676144   -2.324922 H        1 UNL1     0.0622
     66 H         -1.958799   5.078135   1.0381 H        1 UNL1     0.0645
     67 H         -2.356094   3.393826   -0.188875 H        1 UNL1     0.0362
     68 H         -2.626834   2.107981   1.568758 H        1 UNL1     0.0741
     69 H         -0.902757   0.266934   2.38392 H        1 UNL1     0.0359
     70 H         1.247837   0.705192   2.81099 H        1 UNL1     0.0600
     71 H         2.011914   -0.230862   1.009685 H        1 UNL1     0.0348
     72 H         3.317007   1.822018   0.88942 H        1 UNL1     0.0602
     73 H         0.038223   5.476343   -0.2182 H        1 UNL1     0.0628
     74 H         1.246702   5.472479   2.610261 H        1 UNL1     0.1022
     75 H         9.945938   3.765353   -4.849181 H        1 UNL1     0.0279
     76 H         9.495621   5.005749   -5.950059 H        1 UNL1     0.0279
     77 H         10.774495   5.258869   -4.694786 H        1 UNL1     0.0279
     78 H         7.569997   6.127997   -5.969641 H        1 UNL1     0.1553
     79 H         6.543359   4.492179   -5.52654 H        1 UNL1     0.1484
     80 H         2.91466   3.425819   -5.159232 H        1 UNL1     0.0317
     81 H         3.384068   5.053006   -5.630237 H        1 UNL1     0.0317
     82 H         5.235282   4.164405   -7.071451 H        1 UNL1     0.0428
     83 H         3.667894   3.523512   -7.512193 H        1 UNL1     0.0428
     84 H         6.153078   1.01302   -5.140606 H        1 UNL1     0.0428
     85 H         6.816055   2.54446   -5.592575 H        1 UNL1     0.0428
     86 H         5.860688   2.359514   -3.295203 H        1 UNL1     0.0317
     87 H         4.301573   1.97891   -3.866738 H        1 UNL1     0.0317
     88 H         5.91311   2.114039   -8.280959 H        1 UNL1     0.0429
     89 H         5.865524   0.555655   -7.453063 H        1 UNL1     0.0429
     90 H         3.142974   1.150821   -7.845661 H        1 UNL1     0.0308
     91 H         4.696419   2.102029   -10.322922 H        1 UNL1     0.0233
     92 H         2.939914   1.810793   -10.249679 H        1 UNL1     0.0233
     93 H         3.657863   3.111345   -9.323548 H        1 UNL1     0.0233
     94 H         3.346037   -0.516807   -9.751606 H        1 UNL1     0.0233
     95 H         5.085436   -0.526881   -9.421882 H        1 UNL1     0.0233
     96 H         3.939519   -1.041159   -8.162365 H        1 UNL1     0.0233
     97 H         2.757707   10.953979   -0.075636 H        1 UNL1     0.0280
     98 H         4.258553   11.758449   -0.446415 H        1 UNL1     0.0280
     99 H         2.950147   11.715797   -1.665425 H        1 UNL1     0.0280
     100 H         4.839382   11.614308   -3.247598 H        1 UNL1     0.2922
     101 H         4.871394   1.377811   1.786575 H        1 UNL1     0.0236
     102 H         6.038987   2.756274   1.735294 H        1 UNL1     0.0236
     103 H         6.423655   1.218769   1.025642 H        1 UNL1     0.0236
     104 H         4.505048   -0.06299   0.602763 H        1 UNL1     0.2098
     105 H         0.403553   1.400685   -0.941284 H        1 UNL1     0.0234
     106 H         1.16266   -0.193679   -1.211203 H        1 UNL1     0.0234
     107 H         0.0   -0.0   0.0 H        1 UNL1     0.0234
     108 H         1.103471   3.297865   1.72108 H        1 UNL1     0.2098
     109 H         0.569073   3.206899   -0.807165 H        1 UNL1     0.0234
     110 H         -0.731197   2.367062   -1.710921 H        1 UNL1     0.0234
     111 H         -0.698995   4.09357   -1.627392 H        1 UNL1     0.0234
     112 H         -3.047151   -2.051259   1.84263 H        1 UNL1     0.0342
     113 H         -2.810642   -0.415999   2.555529 H        1 UNL1     0.0342
     114 H         -4.161955   -0.726855   1.462235 H        1 UNL1     0.0342
     115 H         -2.343109   1.463136   3.767363 H        1 UNL1     0.0234
     116 H         -0.723749   1.562064   4.466414 H        1 UNL1     0.0234
     117 H         -1.488472   2.927077   3.626424 H        1 UNL1     0.0234
     118 H         -0.104862   7.762933   -0.422982 H        1 UNL1     0.0309
     119 H         0.939981   8.086753   -1.841257 H        1 UNL1     0.0309
     120 H         0.444362   6.463279   -1.41599 H        1 UNL1     0.0309
     121 H         -0.59317   6.044339   3.236932 H        1 UNL1     0.0524
     122 H         -2.318643   5.659252   3.200782 H        1 UNL1     0.0524
     123 H         -1.28263   4.944963   4.461818 H        1 UNL1     0.0524
@<TRIPOS>BOND
     1     1     2    1
     2     1    42    1
     3     2     3    2
     4     3     4    1
     5     4     5    2
     6     5     7    1
     7     6    75    1
     8     6    76    1
     9     6    77    1
    10     7     9   am
    11     9    10    1
    12    10    11    2
    13    10    43    1
    14    11    14    1
    15    11    15    1
    16    12    13   ar
    17    12    27   ar
    18    12    43    1
    19    13    14    1
    20    13    30   ar
    21    14    17    2
    22    15    16    1
    23    16    17    1
    24    16    18    1
    25    16    22    1
    26    18    19    1
    27    19    20    1
    28    20    21    1
    29    21    22    1
    30    23    24    1
    31    23    88    1
    32    23    89    1
    33    24    25    1
    34    24    26    1
    35    24    90    1
    36    25    91    1
    37    25    92    1
    38    25    93    1
    39    26    94    1
    40    26    95    1
    41    26    96    1
    42    27    28   ar
    43    28    29   ar
    44    29    30   ar
    45    29    31    1
    46    30    33    1
    47    31    32    1
    48    32    33    1
    49    32    35    1
    50    34    97    1
    51    34    98    1
    52    34    99    1
    53    35    61    1
    54    36    37    1
    55    36    60    1
    56    37    38    1
    57    38    39    1
    58    39    40    1
    59    40    41    1
    60    41    42    1
    61    45   100    1
    62    47   101    1
    63    47   102    1
    64    47   103    1
    65    48   104    1
    66    49   105    1
    67    49   106    1
    68    49   107    1
    69    50   108    1
    70    51    59    1
    71    52   109    1
    72    52   110    1
    73    52   111    1
    74    53    54    1
    75    54    55    2
    76    54    56    1
    77    56   112    1
    78    56   113    1
    79    56   114    1
    80    57   115    1
    81    57   116    1
    82    57   117    1
    83    58   118    1
    84    58   119    1
    85    58   120    1
    86    59   121    1
    87    59   122    1
    88    59   123    1
    89    60    61    2
    90     1    47    1
    91     1    62    1
    92     2    63    1
    93     3    64    1
    94     4    65    1
    95     5     6    1
    96     7     8    2
    97     9    78    1
    98    15    79    1
    99    18    80    1
   100    18    81    1
   101    19    82    1
   102    19    83    1
   103    20    23    1
   104    21    84    1
   105    21    85    1
   106    22    86    1
   107    22    87    1
   108    27    45    1
   109    28    34    1
   110    32    58    1
   111    33    46    2
   112    36    51    1
   113    36    66    1
   114    37    52    1
   115    37    67    1
   116    38    53    1
   117    38    68    1
   118    42    48    1
   119    42    72    1
   120    43    44    2
   121    60    73    1
   122    61    74    1
   123    39    69    1
   124    39    57    1
   125    40    70    1
   126    40    50    1
   127    41    71    1
   128    41    49    1
