@<TRIPOS>MOLECULE
*****
 123 128 0 0 0
SMALL
GASTEIGER

@<TRIPOS>ATOM
     1 C         5.167564   1.748366   0.488643 C.3        1 UNL1     0.0009
     2 C         6.603821   2.554521   -0.362425 C.2        1 UNL1     -0.0787
     3 C         7.885314   2.45636   -1.028898 C.2        1 UNL1     -0.0649
     4 C         8.762414   3.691551   -1.784778 C.2        1 UNL1     -0.0542
     5 C         9.781925   3.984285   -2.723918 C.2        1 UNL1     0.0115
     6 C         10.909588   3.35891   -3.590292 C.3        1 UNL1     -0.0348
     7 C         9.877017   5.467636   -3.330231 C.2        1 UNL1     0.2441
     8 O         10.70117   6.289166   -2.95289 O.2        1 UNL1     -0.2702
     9 N         9.126142   5.674848   -4.500446 N.am        1 UNL1     -0.2772
     10 C         7.843632   6.061562   -4.185896 C.2        1 UNL1     0.1049
     11 C         6.997948   5.090157   -3.893642 C.2        1 UNL1     0.0801
     12 C         6.546151   7.668065   -2.774152 C.ar        1 UNL1     0.0753
     13 C         5.787273   6.540126   -2.326418 C.ar        1 UNL1     0.0305
     14 C         5.903749   5.234525   -2.972087 C.2        1 UNL1     0.0924
     15 N         7.120389   3.761197   -4.053021 N.pl3        1 UNL1     -0.3170
     16 C         5.850668   3.16206   -3.738221 C.3        1 UNL1     0.1275
     17 N         5.21489   4.117174   -2.757779 N.2        1 UNL1     -0.2557
     18 C         4.997104   3.221396   -5.001396 C.3        1 UNL1     0.0016
     19 C         5.751297   2.537441   -6.13055 C.3        1 UNL1     0.0026
     20 N         6.021566   1.159257   -5.745073 N.3        1 UNL1     -0.3018
     21 C         6.785618   0.998607   -4.506208 C.3        1 UNL1     0.0026
     22 C         6.007558   1.688993   -3.384655 C.3        1 UNL1     0.0016
     23 C         6.465386   0.339873   -6.855153 C.3        1 UNL1     0.0012
     24 C         5.309365   0.090637   -7.836607 C.3        1 UNL1     -0.0339
     25 C         5.34447   1.082977   -9.010527 C.3        1 UNL1     -0.0615
     26 C         5.338094   -1.348782   -8.320369 C.3        1 UNL1     -0.0615
     27 C         6.341883   8.935684   -2.234211 C.ar        1 UNL1     0.1347
     28 C         5.383391   9.205138   -1.273619 C.ar        1 UNL1     0.0342
     29 C         4.682016   8.07066   -0.812972 C.ar        1 UNL1     0.1435
     30 C         4.901084   6.788701   -1.318749 C.ar        1 UNL1     0.0774
     31 O         3.64152   8.184157   0.041131 O.3        1 UNL1     -0.4436
     32 C         2.919678   6.951408   -0.100816 C.3        1 UNL1     0.3143
     33 C         3.932604   5.958321   -0.633707 C.2        1 UNL1     0.2504
     34 C         4.936896   10.571201   -0.832466 C.3        1 UNL1     -0.0327
     35 O         2.559768   6.51452   1.21556 O.2        1 UNL1     -0.4528
     36 C         -0.683635   4.582615   0.820381 C.3        1 UNL1     0.0854
     37 C         -0.989542   3.322195   -0.076996 C.3        1 UNL1     0.0236
     38 C         -1.589729   2.061066   0.711087 C.3        1 UNL1     0.1131
     39 C         -0.863256   1.529876   2.011989 C.3        1 UNL1     0.0200
     40 C         0.79795   1.384213   2.052175 C.3        1 UNL1     0.0661
     41 C         1.756592   0.615503   0.882688 C.3        1 UNL1     0.0091
     42 C         3.463878   0.978033   0.317755 C.3        1 UNL1     0.0661
     43 C         7.495531   7.460475   -3.895688 C.2        1 UNL1     0.2131
     44 O         7.89506   8.358638   -4.614309 O.2        1 UNL1     -0.2851
     45 O         7.153955   9.970808   -2.693009 O.3        1 UNL1     -0.5056
     46 O         3.948587   4.754766   -0.503126 O.2        1 UNL1     -0.2836
     47 C         5.56473   1.31864   1.92655 C.3        1 UNL1     -0.0566
     48 O         3.912393   -0.433115   0.399063 O.3        1 UNL1     -0.3909
     49 C         0.921671   0.38316   -0.356835 C.3        1 UNL1     -0.0577
     50 O         1.398459   2.601974   2.444819 O.3        1 UNL1     -0.3910
     51 O         -0.80693   4.392737   2.211846 O.3        1 UNL1     -0.3753
     52 C         0.054233   3.161827   -1.23015 C.3        1 UNL1     -0.0564
     53 O         -2.192925   1.02226   -0.188559 O.3        1 UNL1     -0.4608
     54 C         -2.427228   -0.284527   0.151058 C.2        1 UNL1     0.3042
     55 O         -1.858453   -1.28363   -0.287265 O.2        1 UNL1     -0.2512
     56 C         -3.466635   -0.450261   1.222915 C.3        1 UNL1     0.0332
     57 C         -1.583505   2.19873   3.273754 C.3        1 UNL1     -0.0567
     58 C         1.84387   7.196736   -1.18432 C.3        1 UNL1     0.0210
     59 C         -1.119615   5.571653   2.952286 C.3        1 UNL1     0.0372
     60 C         0.64527   5.211641   0.589085 C.2        1 UNL1     -0.0208
     61 C         1.558742   5.646681   1.458024 C.2        1 UNL1     0.0882
     62 H         4.691764   2.732559   0.576335 H        1 UNL1     0.0365
     63 H         6.337709   3.608323   -0.256809 H        1 UNL1     0.0576
     64 H         8.342771   1.489511   -1.250356 H        1 UNL1     0.0615
     65 H         8.275598   4.606931   -1.437541 H        1 UNL1     0.0622
     66 H         -1.428414   5.329241   0.510703 H        1 UNL1     0.0645
     67 H         -1.855426   3.631711   -0.687737 H        1 UNL1     0.0362
     68 H         -2.536562   2.497957   1.063442 H        1 UNL1     0.0741
     69 H         -1.194736   0.518773   2.207436 H        1 UNL1     0.0359
     70 H         0.910195   0.723746   2.933223 H        1 UNL1     0.0600
     71 H         1.800353   -0.405728   1.309456 H        1 UNL1     0.0348
     72 H         3.358605   1.466104   1.297561 H        1 UNL1     0.0602
     73 H         0.762572   5.409032   -0.447508 H        1 UNL1     0.0628
     74 H         1.541808   5.435863   2.52784 H        1 UNL1     0.1022
     75 H         10.935455   2.250219   -3.459257 H        1 UNL1     0.0279
     76 H         10.808769   3.465128   -4.668078 H        1 UNL1     0.0279
     77 H         11.915676   3.641302   -3.247156 H        1 UNL1     0.0279
     78 H         9.063771   4.804979   -5.025341 H        1 UNL1     0.1553
     79 H         7.785265   3.333247   -4.670865 H        1 UNL1     0.1484
     80 H         4.035902   2.730504   -4.806766 H        1 UNL1     0.0317
     81 H         4.770411   4.258205   -5.272118 H        1 UNL1     0.0317
     82 H         6.681852   3.068711   -6.379007 H        1 UNL1     0.0428
     83 H         5.125624   2.592756   -7.02191 H        1 UNL1     0.0428
     84 H         6.906045   -0.044398   -4.197258 H        1 UNL1     0.0428
     85 H         7.815676   1.36658   -4.61058 H        1 UNL1     0.0428
     86 H         6.524497   1.438464   -2.476912 H        1 UNL1     0.0317
     87 H         5.028152   1.211409   -3.259056 H        1 UNL1     0.0317
     88 H         7.261178   0.881687   -7.382834 H        1 UNL1     0.0429
     89 H         6.89812   -0.60598   -6.504614 H        1 UNL1     0.0429
     90 H         4.356652   0.209706   -7.307103 H        1 UNL1     0.0308
     91 H         6.297321   1.032207   -9.545876 H        1 UNL1     0.0233
     92 H         4.529153   0.883159   -9.709769 H        1 UNL1     0.0233
     93 H         5.218607   2.12205   -8.682926 H        1 UNL1     0.0233
     94 H         4.643104   -1.480083   -9.156781 H        1 UNL1     0.0233
     95 H         6.341375   -1.604706   -8.672352 H        1 UNL1     0.0233
     96 H         5.055582   -2.043095   -7.524074 H        1 UNL1     0.0233
     97 H         4.137692   10.521511   -0.098958 H        1 UNL1     0.0280
     98 H         5.747546   11.137637   -0.355756 H        1 UNL1     0.0280
     99 H         4.571554   11.139259   -1.703632 H        1 UNL1     0.0280
     100 H         6.686801   10.72202   -3.014054 H        1 UNL1     0.2922
     101 H         4.699044   0.896407   2.436418 H        1 UNL1     0.0236
     102 H         6.027   2.120493   2.501285 H        1 UNL1     0.0236
     103 H         6.311744   0.507369   1.924875 H        1 UNL1     0.0236
     104 H         4.332117   -0.559345   1.272487 H        1 UNL1     0.2098
     105 H         0.708748   1.282084   -0.929906 H        1 UNL1     0.0234
     106 H         1.290618   -0.404799   -1.013285 H        1 UNL1     0.0234
     107 H         0.0   -0.0   0.0 H        1 UNL1     0.0234
     108 H         1.20494   3.258672   1.748352 H        1 UNL1     0.2098
     109 H         1.080734   3.060621   -0.850986 H        1 UNL1     0.0234
     110 H         -0.171999   2.327221   -1.902456 H        1 UNL1     0.0234
     111 H         0.066307   4.039501   -1.890067 H        1 UNL1     0.0234
     112 H         -3.589961   -1.511164   1.460871 H        1 UNL1     0.0342
     113 H         -3.229156   0.125476   2.116209 H        1 UNL1     0.0342
     114 H         -4.424256   -0.079147   0.832528 H        1 UNL1     0.0342
     115 H         -2.653123   1.950522   3.312457 H        1 UNL1     0.0234
     116 H         -1.146499   1.918811   4.234337 H        1 UNL1     0.0234
     117 H         -1.622057   3.300595   3.225296 H        1 UNL1     0.0234
     118 H         0.94245   7.682239   -0.771118 H        1 UNL1     0.0309
     119 H         2.212352   7.786107   -2.029936 H        1 UNL1     0.0309
     120 H         1.45609   6.264897   -1.61024 H        1 UNL1     0.0309
     121 H         -0.298599   6.274781   2.814808 H        1 UNL1     0.0524
     122 H         -2.039591   6.060805   2.591162 H        1 UNL1     0.0524
     123 H         -1.23698   5.333779   4.005726 H        1 UNL1     0.0524
@<TRIPOS>BOND
     1     1     2    1
     2     1    42    1
     3     2     3    2
     4     3     4    1
     5     4     5    2
     6     5     7    1
     7     6    75    1
     8     6    76    1
     9     6    77    1
    10     7     9   am
    11     9    10    1
    12    10    11    2
    13    10    43    1
    14    11    14    1
    15    11    15    1
    16    12    13   ar
    17    12    27   ar
    18    12    43    1
    19    13    14    1
    20    13    30   ar
    21    14    17    2
    22    15    16    1
    23    16    17    1
    24    16    18    1
    25    16    22    1
    26    18    19    1
    27    19    20    1
    28    20    21    1
    29    21    22    1
    30    23    24    1
    31    23    88    1
    32    23    89    1
    33    24    25    1
    34    24    26    1
    35    24    90    1
    36    25    91    1
    37    25    92    1
    38    25    93    1
    39    26    94    1
    40    26    95    1
    41    26    96    1
    42    27    28   ar
    43    28    29   ar
    44    29    30   ar
    45    29    31    1
    46    30    33    1
    47    31    32    1
    48    32    33    1
    49    32    35    1
    50    34    97    1
    51    34    98    1
    52    34    99    1
    53    35    61    1
    54    36    37    1
    55    36    60    1
    56    37    38    1
    57    38    39    1
    58    39    40    1
    59    40    41    1
    60    41    42    1
    61    45   100    1
    62    47   101    1
    63    47   102    1
    64    47   103    1
    65    48   104    1
    66    49   105    1
    67    49   106    1
    68    49   107    1
    69    50   108    1
    70    51    59    1
    71    52   109    1
    72    52   110    1
    73    52   111    1
    74    53    54    1
    75    54    55    2
    76    54    56    1
    77    56   112    1
    78    56   113    1
    79    56   114    1
    80    57   115    1
    81    57   116    1
    82    57   117    1
    83    58   118    1
    84    58   119    1
    85    58   120    1
    86    59   121    1
    87    59   122    1
    88    59   123    1
    89    60    61    2
    90     1    47    1
    91     1    62    1
    92     2    63    1
    93     3    64    1
    94     4    65    1
    95     5     6    1
    96     7     8    2
    97     9    78    1
    98    15    79    1
    99    18    80    1
   100    18    81    1
   101    19    82    1
   102    19    83    1
   103    20    23    1
   104    21    84    1
   105    21    85    1
   106    22    86    1
   107    22    87    1
   108    27    45    1
   109    28    34    1
   110    32    58    1
   111    33    46    2
   112    36    51    1
   113    36    66    1
   114    37    52    1
   115    37    67    1
   116    38    53    1
   117    38    68    1
   118    42    48    1
   119    42    72    1
   120    43    44    2
   121    60    73    1
   122    61    74    1
   123    39    69    1
   124    39    57    1
   125    40    70    1
   126    40    50    1
   127    41    71    1
   128    41    49    1
