@<TRIPOS>MOLECULE
*****
 123 128 0 0 0
SMALL
GASTEIGER

@<TRIPOS>ATOM
     1 C         0.244589   0.024901   4.12127 C.3        1 UNL1     0.0009
     2 C         -0.820846   -0.887885   5.333174 C.2        1 UNL1     -0.0787
     3 C         -1.96596   -0.927406   6.218158 C.2        1 UNL1     -0.0649
     4 C         -2.567003   -2.252602   7.083583 C.2        1 UNL1     -0.0542
     5 C         -3.697134   -2.789188   7.748381 C.2        1 UNL1     0.0115
     6 C         -5.118896   -2.455901   8.278319 C.3        1 UNL1     -0.0348
     7 C         -3.752145   -4.367464   8.036493 C.2        1 UNL1     0.2441
     8 O         -3.518516   -4.851841   9.135275 O.2        1 UNL1     -0.2702
     9 N         -4.339133   -5.132757   7.01379 N.am        1 UNL1     -0.2772
     10 C         -3.392349   -5.500554   6.08554 C.2        1 UNL1     0.1049
     11 C         -3.105508   -4.603332   5.159831 C.2        1 UNL1     0.0801
     12 C         -1.113335   -6.508843   5.869246 C.ar        1 UNL1     0.0753
     13 C         -0.785878   -5.39532   5.031721 C.ar        1 UNL1     0.0305
     14 C         -1.812213   -4.476477   4.544468 C.2        1 UNL1     0.0924
     15 N         -3.734711   -3.459084   4.841513 N.pl3        1 UNL1     -0.3170
     16 C         -3.121669   -2.937639   3.648815 C.3        1 UNL1     0.1275
     17 N         -1.707096   -3.46199   3.690833 N.2        1 UNL1     -0.2557
     18 C         -3.791427   -3.620844   2.460389 C.3        1 UNL1     0.0016
     19 C         -5.291466   -3.388946   2.548107 C.3        1 UNL1     0.0026
     20 N         -5.544402   -1.954734   2.5388 N.3        1 UNL1     -0.3018
     21 C         -4.890074   -1.201055   3.610337 C.3        1 UNL1     0.0026
     22 C         -3.383943   -1.444743   3.500422 C.3        1 UNL1     0.0016
     23 C         -6.939414   -1.62954   2.31781 C.3        1 UNL1     0.0012
     24 C         -7.718113   -1.669479   3.642116 C.3        1 UNL1     -0.0339
     25 C         -9.159749   -2.161087   3.432198 C.3        1 UNL1     -0.0615
     26 C         -6.977947   -2.524577   4.655892 C.3        1 UNL1     -0.0615
     27 C         -0.150301   -7.44813   6.230391 C.ar        1 UNL1     0.1347
     28 C         1.158716   -7.401533   5.785022 C.ar        1 UNL1     0.0342
     29 C         1.469958   -6.269928   5.001591 C.ar        1 UNL1     0.1435
     30 C         0.524377   -5.301674   4.661618 C.ar        1 UNL1     0.0774
     31 O         2.673234   -6.13719   4.401997 O.3        1 UNL1     -0.4436
     32 C         2.455637   -5.171903   3.361927 C.3        1 UNL1     0.3143
     33 C         1.240418   -4.38141   3.803034 C.2        1 UNL1     0.2504
     34 C         2.176469   -8.499416   5.92261 C.3        1 UNL1     -0.0327
     35 O         3.568735   -4.269688   3.37844 O.2        1 UNL1     -0.4528
     36 C         3.995996   -3.078541   -0.200205 C.3        1 UNL1     0.0854
     37 C         2.956372   -2.355645   -1.140486 C.3        1 UNL1     0.0236
     38 C         3.45606   -0.960929   -1.754345 C.3        1 UNL1     0.1131
     39 C         4.055177   0.147919   -0.798424 C.3        1 UNL1     0.0200
     40 C         3.322255   0.491944   0.659969 C.3        1 UNL1     0.0661
     41 C         1.671807   0.807388   0.892627 C.3        1 UNL1     0.0091
     42 C         0.5812   0.445852   2.322756 C.3        1 UNL1     0.0661
     43 C         -2.532668   -6.679622   6.267476 C.2        1 UNL1     0.2131
     44 O         -3.008332   -7.742125   6.624646 O.2        1 UNL1     -0.2851
     45 O         -0.540943   -8.476441   7.085618 O.3        1 UNL1     -0.5056
     46 O         0.941983   -3.241192   3.526098 O.2        1 UNL1     -0.2836
     47 C         1.134658   1.060912   4.859131 C.3        1 UNL1     -0.0566
     48 O         -0.014646   1.803387   2.35715 O.3        1 UNL1     -0.3909
     49 C         0.916641   0.398908   -0.352508 C.3        1 UNL1     -0.0577
     50 O         3.797378   -0.36917   1.675086 O.3        1 UNL1     -0.3910
     51 O         5.152024   -2.339352   0.123259 O.3        1 UNL1     -0.3753
     52 C         1.485473   -2.571045   -0.655711 C.3        1 UNL1     -0.0564
     53 O         2.616869   -0.473602   -2.899158 O.3        1 UNL1     -0.4608
     54 C         2.293716   0.834731   -3.147689 C.2        1 UNL1     0.3042
     55 O         3.061459   1.751771   -3.436559 O.2        1 UNL1     -0.2512
     56 C         0.817358   1.108623   -3.102243 C.3        1 UNL1     0.0332
     57 C         5.646636   -0.010835   -0.813626 C.3        1 UNL1     -0.0567
     58 C         2.094463   -5.973545   2.089743 C.3        1 UNL1     0.0210
     59 C         6.342934   -2.771443   -0.533167 C.3        1 UNL1     0.0372
     60 C         3.4373   -3.584938   1.082986 C.2        1 UNL1     -0.0208
     61 C         3.915504   -3.504899   2.325427 C.2        1 UNL1     0.0882
     62 H         0.85161   -0.880657   4.002095 H        1 UNL1     0.0365
     63 H         -0.266255   -1.823863   5.427215 H        1 UNL1     0.0576
     64 H         -2.671364   -0.095654   6.278989 H        1 UNL1     0.0615
     65 H         -1.760656   -2.988798   7.026106 H        1 UNL1     0.0622
     66 H         4.307164   -3.968372   -0.765379 H        1 UNL1     0.0645
     67 H         2.921994   -2.992302   -2.041622 H        1 UNL1     0.0362
     68 H         4.306141   -1.318455   -2.355228 H        1 UNL1     0.0741
     69 H         4.025404   1.101021   -1.309421 H        1 UNL1     0.0359
     70 H         3.79199   1.468857   0.883688 H        1 UNL1     0.0600
     71 H         1.670296   1.910774   0.795191 H        1 UNL1     0.0348
     72 H         1.610334   0.404353   2.70808 H        1 UNL1     0.0602
     73 H         2.583732   -4.18297   0.880429 H        1 UNL1     0.0628
     74 H         4.749053   -2.869019   2.625579 H        1 UNL1     0.1022
     75 H         -5.160662   -2.571633   9.388227 H        1 UNL1     0.0279
     76 H         -5.462282   -1.433656   8.136295 H        1 UNL1     0.0279
     77 H         -5.875112   -3.186427   7.955565 H        1 UNL1     0.0279
     78 H         -5.041797   -4.576756   6.530879 H        1 UNL1     0.1553
     79 H         -4.682403   -3.254076   5.099943 H        1 UNL1     0.1484
     80 H         -3.376381   -3.21078   1.53176 H        1 UNL1     0.0317
     81 H         -3.574892   -4.694489   2.453241 H        1 UNL1     0.0317
     82 H         -5.724919   -3.861526   3.441806 H        1 UNL1     0.0428
     83 H         -5.749508   -3.885911   1.692377 H        1 UNL1     0.0428
     84 H         -5.030705   -0.118361   3.534123 H        1 UNL1     0.0428
     85 H         -5.3002   -1.454519   4.597692 H        1 UNL1     0.0428
     86 H         -2.930206   -0.777985   4.21003 H        1 UNL1     0.0317
     87 H         -3.014441   -1.077722   2.535093 H        1 UNL1     0.0317
     88 H         -6.992473   -0.610911   1.911762 H        1 UNL1     0.0429
     89 H         -7.391187   -2.296787   1.572521 H        1 UNL1     0.0429
     90 H         -7.752063   -0.66028   4.069408 H        1 UNL1     0.0308
     91 H         -9.188084   -3.049507   2.794225 H        1 UNL1     0.0233
     92 H         -9.632447   -2.39194   4.389732 H        1 UNL1     0.0233
     93 H         -9.793226   -1.404911   2.952886 H        1 UNL1     0.0233
     94 H         -7.669077   -2.87677   5.429283 H        1 UNL1     0.0233
     95 H         -6.548691   -3.401253   4.1628 H        1 UNL1     0.0233
     96 H         -6.174162   -1.963191   5.140397 H        1 UNL1     0.0233
     97 H         2.558005   -8.824394   4.959257 H        1 UNL1     0.0280
     98 H         3.053371   -8.180682   6.50115 H        1 UNL1     0.0280
     99 H         1.717382   -9.367606   6.423191 H        1 UNL1     0.0280
     100 H         -1.127663   -8.212767   7.772536 H        1 UNL1     0.2922
     101 H         0.583777   1.992113   4.989716 H        1 UNL1     0.0236
     102 H         2.097963   1.219941   4.375669 H        1 UNL1     0.0236
     103 H         1.38432   0.737443   5.88345 H        1 UNL1     0.0236
     104 H         -0.468973   1.904406   3.216425 H        1 UNL1     0.2098
     105 H         0.684951   1.219597   -1.026749 H        1 UNL1     0.0234
     106 H         1.361936   -0.428962   -0.904115 H        1 UNL1     0.0234
     107 H         0.0   -0.0   0.0 H        1 UNL1     0.0234
     108 H         4.764558   -0.24584   1.73094 H        1 UNL1     0.2098
     109 H         1.202201   -3.632817   -0.645269 H        1 UNL1     0.0234
     110 H         1.287016   -2.12919   0.326695 H        1 UNL1     0.0234
     111 H         0.76392   -2.077433   -1.320283 H        1 UNL1     0.0234
     112 H         0.631293   2.063879   -2.602033 H        1 UNL1     0.0342
     113 H         0.367134   1.092517   -4.093647 H        1 UNL1     0.0342
     114 H         0.339923   0.318142   -2.506961 H        1 UNL1     0.0342
     115 H         6.147062   0.845993   -0.341813 H        1 UNL1     0.0234
     116 H         6.007341   -0.914901   -0.31905 H        1 UNL1     0.0234
     117 H         6.082117   0.019705   -1.827217 H        1 UNL1     0.0234
     118 H         2.894753   -5.928911   1.330433 H        1 UNL1     0.0309
     119 H         1.854442   -7.021436   2.295941 H        1 UNL1     0.0309
     120 H         1.225569   -5.560937   1.565448 H        1 UNL1     0.0309
     121 H         7.187339   -2.482804   0.092152 H        1 UNL1     0.0524
     122 H         6.37943   -3.866789   -0.655327 H        1 UNL1     0.0524
     123 H         6.423694   -2.304758   -1.510805 H        1 UNL1     0.0524
@<TRIPOS>BOND
     1     1     2    1
     2     1    42    1
     3     2     3    2
     4     3     4    1
     5     4     5    2
     6     5     7    1
     7     6    75    1
     8     6    76    1
     9     6    77    1
    10     7     9   am
    11     9    10    1
    12    10    11    2
    13    10    43    1
    14    11    14    1
    15    11    15    1
    16    12    13   ar
    17    12    27   ar
    18    12    43    1
    19    13    14    1
    20    13    30   ar
    21    14    17    2
    22    15    16    1
    23    16    17    1
    24    16    18    1
    25    16    22    1
    26    18    19    1
    27    19    20    1
    28    20    21    1
    29    21    22    1
    30    23    24    1
    31    23    88    1
    32    23    89    1
    33    24    25    1
    34    24    26    1
    35    24    90    1
    36    25    91    1
    37    25    92    1
    38    25    93    1
    39    26    94    1
    40    26    95    1
    41    26    96    1
    42    27    28   ar
    43    28    29   ar
    44    29    30   ar
    45    29    31    1
    46    30    33    1
    47    31    32    1
    48    32    33    1
    49    32    35    1
    50    34    97    1
    51    34    98    1
    52    34    99    1
    53    35    61    1
    54    36    37    1
    55    36    60    1
    56    37    38    1
    57    38    39    1
    58    39    40    1
    59    40    41    1
    60    41    42    1
    61    45   100    1
    62    47   101    1
    63    47   102    1
    64    47   103    1
    65    48   104    1
    66    49   105    1
    67    49   106    1
    68    49   107    1
    69    50   108    1
    70    51    59    1
    71    52   109    1
    72    52   110    1
    73    52   111    1
    74    53    54    1
    75    54    55    2
    76    54    56    1
    77    56   112    1
    78    56   113    1
    79    56   114    1
    80    57   115    1
    81    57   116    1
    82    57   117    1
    83    58   118    1
    84    58   119    1
    85    58   120    1
    86    59   121    1
    87    59   122    1
    88    59   123    1
    89    60    61    2
    90     1    47    1
    91     1    62    1
    92     2    63    1
    93     3    64    1
    94     4    65    1
    95     5     6    1
    96     7     8    2
    97     9    78    1
    98    15    79    1
    99    18    80    1
   100    18    81    1
   101    19    82    1
   102    19    83    1
   103    20    23    1
   104    21    84    1
   105    21    85    1
   106    22    86    1
   107    22    87    1
   108    27    45    1
   109    28    34    1
   110    32    58    1
   111    33    46    2
   112    36    51    1
   113    36    66    1
   114    37    52    1
   115    37    67    1
   116    38    53    1
   117    38    68    1
   118    42    48    1
   119    42    72    1
   120    43    44    2
   121    60    73    1
   122    61    74    1
   123    39    69    1
   124    39    57    1
   125    40    70    1
   126    40    50    1
   127    41    71    1
   128    41    49    1
