@<TRIPOS>MOLECULE
*****
 123 128 0 0 0
SMALL
GASTEIGER

@<TRIPOS>ATOM
     1 C         4.971813   2.239182   0.5281 C.3        1 UNL1     0.0009
     2 C         6.358952   3.116039   -0.334457 C.2        1 UNL1     -0.0787
     3 C         7.671202   3.094546   -0.945671 C.2        1 UNL1     -0.0649
     4 C         8.456998   4.348919   -1.767517 C.2        1 UNL1     -0.0542
     5 C         9.482788   4.668325   -2.690995 C.2        1 UNL1     0.0115
     6 C         10.701246   4.093179   -3.464229 C.3        1 UNL1     -0.0348
     7 C         9.460685   6.102844   -3.411172 C.2        1 UNL1     0.2441
     8 O         10.185239   7.028576   -3.072693 O.2        1 UNL1     -0.2702
     9 N         8.743974   6.144125   -4.619796 N.am        1 UNL1     -0.2772
     10 C         7.417996   6.424773   -4.382433 C.2        1 UNL1     0.1049
     11 C         6.657871   5.399623   -4.04258 C.2        1 UNL1     0.0801
     12 C         5.913127   7.998336   -3.150929 C.ar        1 UNL1     0.0753
     13 C         5.247736   6.838432   -2.64055 C.ar        1 UNL1     0.0305
     14 C         5.516557   5.505113   -3.17445 C.2        1 UNL1     0.0924
     15 N         6.914127   4.081058   -4.089977 N.pl3        1 UNL1     -0.3170
     16 C         5.695584   3.384924   -3.772478 C.3        1 UNL1     0.1275
     17 N         4.929737   4.344735   -2.895002 N.2        1 UNL1     -0.2557
     18 C         4.894926   3.262178   -5.065376 C.3        1 UNL1     0.0016
     19 C         5.75882   2.571709   -6.108702 C.3        1 UNL1     0.0026
     20 N         6.143575   1.260798   -5.604218 N.3        1 UNL1     -0.3018
     21 C         6.865988   1.272288   -4.3305 C.3        1 UNL1     0.0026
     22 C         5.978065   1.966188   -3.296097 C.3        1 UNL1     0.0016
     23 C         6.711015   0.40666   -6.628475 C.3        1 UNL1     0.0012
     24 C         5.627209   -0.030583   -7.626444 C.3        1 UNL1     -0.0339
     25 C         5.85306   0.596   -9.012244 C.3        1 UNL1     -0.0615
     26 C         5.569052   -1.546441   -7.701099 C.3        1 UNL1     -0.0615
     27 C         5.56516   9.277149   -2.722357 C.ar        1 UNL1     0.1347
     28 C         4.545116   9.52319   -1.820678 C.ar        1 UNL1     0.0342
     29 C         3.936987   8.363491   -1.294901 C.ar        1 UNL1     0.1435
     30 C         4.299594   7.074541   -1.687769 C.ar        1 UNL1     0.0774
     31 O         2.854922   8.4385   -0.489597 O.3        1 UNL1     -0.4436
     32 C         2.261585   7.133013   -0.556882 C.3        1 UNL1     0.3143
     33 C         3.387049   6.207285   -0.9723 C.2        1 UNL1     0.2504
     34 C         3.951019   10.868068   -1.506908 C.3        1 UNL1     -0.0327
     35 O         1.889501   6.764954   0.777037 O.2        1 UNL1     -0.4528
     36 C         -1.133445   4.496369   0.425736 C.3        1 UNL1     0.0854
     37 C         -1.278272   3.14667   -0.377295 C.3        1 UNL1     0.0236
     38 C         -1.787569   1.896493   0.488394 C.3        1 UNL1     0.1131
     39 C         -1.069569   1.541407   1.852454 C.3        1 UNL1     0.0200
     40 C         0.594714   1.56469   1.962263 C.3        1 UNL1     0.0661
     41 C         1.671788   0.807311   0.892733 C.3        1 UNL1     0.0091
     42 C         3.358875   1.292887   0.36042 C.3        1 UNL1     0.0661
     43 C         6.92503   7.800409   -4.218233 C.2        1 UNL1     0.2131
     44 O         7.266694   8.675923   -4.992493 O.2        1 UNL1     -0.2851
     45 O         6.29284   10.349395   -3.234419 O.3        1 UNL1     -0.5056
     46 O         3.513019   5.024841   -0.744682 O.2        1 UNL1     -0.2836
     47 C         5.346738   1.962625   2.008955 C.3        1 UNL1     -0.0566
     48 O         3.937029   -0.056408   0.570796 O.3        1 UNL1     -0.3909
     49 C         0.916688   0.398851   -0.352449 C.3        1 UNL1     -0.0577
     50 O         1.058138   2.862526   2.276244 O.3        1 UNL1     -0.3910
     51 O         -1.297161   4.402597   1.822817 O.3        1 UNL1     -0.3753
     52 C         -0.175686   3.002526   -1.476602 C.3        1 UNL1     -0.0564
     53 O         -2.249236   0.737008   -0.345144 O.3        1 UNL1     -0.4608
     54 C         -2.368229   -0.557178   0.089427 C.2        1 UNL1     0.3042
     55 O         -1.485497   -1.412909   0.137871 O.2        1 UNL1     -0.2512
     56 C         -3.738598   -0.89529   0.603708 C.3        1 UNL1     0.0332
     57 C         -1.903912   2.23044   3.030282 C.3        1 UNL1     -0.0567
     58 C         1.21438   7.186548   -1.693555 C.3        1 UNL1     0.0210
     59 C         -2.512284   4.958979   2.322599 C.3        1 UNL1     0.0372
     60 C         0.137521   5.234435   0.191078 C.2        1 UNL1     -0.0208
     61 C         0.967067   5.823327   1.053519 C.2        1 UNL1     0.0882
     62 H         4.400342   3.175162   0.519522 H        1 UNL1     0.0365
     63 H         5.988554   4.143246   -0.323463 H        1 UNL1     0.0576
     64 H         8.228472   2.163684   -1.072381 H        1 UNL1     0.0615
     65 H         7.870113   5.235464   -1.512392 H        1 UNL1     0.0622
     66 H         -1.932629   5.139479   0.03107 H        1 UNL1     0.0645
     67 H         -2.143048   3.320998   -1.040871 H        1 UNL1     0.0362
     68 H         -2.786164   2.263108   0.771101 H        1 UNL1     0.0741
     69 H         -1.310396   0.520424   2.117039 H        1 UNL1     0.0359
     70 H         0.732219   0.98821   2.897048 H        1 UNL1     0.0600
     71 H         1.79523   -0.168754   1.401671 H        1 UNL1     0.0348
     72 H         3.165497   1.841892   1.293434 H        1 UNL1     0.0602
     73 H         0.27942   5.362313   -0.853316 H        1 UNL1     0.0628
     74 H         0.924854   5.694632   2.135597 H        1 UNL1     0.1022
     75 H         10.797565   2.995411   -3.283503 H        1 UNL1     0.0279
     76 H         10.657317   4.14894   -4.5496 H        1 UNL1     0.0279
     77 H         11.662724   4.461718   -3.077654 H        1 UNL1     0.0279
     78 H         8.78792   5.234639   -5.074748 H        1 UNL1     0.1553
     79 H         7.642792   3.674974   -4.647719 H        1 UNL1     0.1484
     80 H         3.977917   2.694798   -4.865525 H        1 UNL1     0.0317
     81 H         4.581413   4.247539   -5.426518 H        1 UNL1     0.0317
     82 H         6.643768   3.171976   -6.366496 H        1 UNL1     0.0428
     83 H         5.169318   2.496115   -7.022936 H        1 UNL1     0.0428
     84 H         7.072789   0.273178   -3.934491 H        1 UNL1     0.0428
     85 H         7.859433   1.731476   -4.428131 H        1 UNL1     0.0428
     86 H         6.477494   1.838585   -2.353613 H        1 UNL1     0.0317
     87 H         5.044619   1.404907   -3.166719 H        1 UNL1     0.0317
     88 H         7.472843   0.982588   -7.169973 H        1 UNL1     0.0429
     89 H         7.217283   -0.461907   -6.187955 H        1 UNL1     0.0429
     90 H         4.646494   0.288826   -7.254439 H        1 UNL1     0.0308
     91 H         6.898885   0.509937   -9.321994 H        1 UNL1     0.0233
     92 H         5.216834   0.117859   -9.760715 H        1 UNL1     0.0233
     93 H         5.601635   1.663308   -9.033997 H        1 UNL1     0.0233
     94 H         5.021592   -1.859768   -8.596616 H        1 UNL1     0.0233
     95 H         6.580905   -1.956535   -7.763846 H        1 UNL1     0.0233
     96 H         5.070095   -1.970263   -6.825094 H        1 UNL1     0.0233
     97 H         2.884793   10.899991   -1.710314 H        1 UNL1     0.0280
     98 H         4.062899   11.132892   -0.447376 H        1 UNL1     0.0280
     99 H         4.443032   11.640948   -2.119832 H        1 UNL1     0.0280
     100 H         5.958712   10.699482   -4.041525 H        1 UNL1     0.2922
     101 H         4.442179   1.785026   2.590235 H        1 UNL1     0.0236
     102 H         5.967626   2.743429   2.446936 H        1 UNL1     0.0236
     103 H         5.937368   1.038061   2.120895 H        1 UNL1     0.0236
     104 H         4.250953   -0.101951   1.495106 H        1 UNL1     0.2098
     105 H         0.685092   1.219542   -1.02672 H        1 UNL1     0.0234
     106 H         1.361977   -0.429052   -0.90401 H        1 UNL1     0.0234
     107 H         0.0   -0.0   0.0 H        1 UNL1     0.0234
     108 H         0.966699   3.406139   1.470085 H        1 UNL1     0.2098
     109 H         -0.223377   3.808797   -2.221831 H        1 UNL1     0.0234
     110 H         0.837571   2.943666   -1.064791 H        1 UNL1     0.0234
     111 H         -0.287853   2.067952   -2.042231 H        1 UNL1     0.0234
     112 H         -4.048395   -1.873057   0.222468 H        1 UNL1     0.0342
     113 H         -3.786401   -0.866941   1.691253 H        1 UNL1     0.0342
     114 H         -4.443811   -0.145292   0.219857 H        1 UNL1     0.0342
     115 H         -2.970765   1.972595   2.97998 H        1 UNL1     0.0234
     116 H         -1.55143   1.975828   4.03177 H        1 UNL1     0.0234
     117 H         -1.946728   3.330555   2.953762 H        1 UNL1     0.0234
     118 H         0.181187   7.13018   -1.308404 H        1 UNL1     0.0309
     119 H         1.31263   8.073997   -2.326788 H        1 UNL1     0.0309
     120 H         1.280318   6.32485   -2.366782 H        1 UNL1     0.0309
     121 H         -2.340149   5.249884   3.358505 H        1 UNL1     0.0524
     122 H         -2.816703   5.863416   1.770005 H        1 UNL1     0.0524
     123 H         -3.312093   4.225961   2.267068 H        1 UNL1     0.0524
@<TRIPOS>BOND
     1     1     2    1
     2     1    42    1
     3     2     3    2
     4     3     4    1
     5     4     5    2
     6     5     7    1
     7     6    75    1
     8     6    76    1
     9     6    77    1
    10     7     9   am
    11     9    10    1
    12    10    11    2
    13    10    43    1
    14    11    14    1
    15    11    15    1
    16    12    13   ar
    17    12    27   ar
    18    12    43    1
    19    13    14    1
    20    13    30   ar
    21    14    17    2
    22    15    16    1
    23    16    17    1
    24    16    18    1
    25    16    22    1
    26    18    19    1
    27    19    20    1
    28    20    21    1
    29    21    22    1
    30    23    24    1
    31    23    88    1
    32    23    89    1
    33    24    25    1
    34    24    26    1
    35    24    90    1
    36    25    91    1
    37    25    92    1
    38    25    93    1
    39    26    94    1
    40    26    95    1
    41    26    96    1
    42    27    28   ar
    43    28    29   ar
    44    29    30   ar
    45    29    31    1
    46    30    33    1
    47    31    32    1
    48    32    33    1
    49    32    35    1
    50    34    97    1
    51    34    98    1
    52    34    99    1
    53    35    61    1
    54    36    37    1
    55    36    60    1
    56    37    38    1
    57    38    39    1
    58    39    40    1
    59    40    41    1
    60    41    42    1
    61    45   100    1
    62    47   101    1
    63    47   102    1
    64    47   103    1
    65    48   104    1
    66    49   105    1
    67    49   106    1
    68    49   107    1
    69    50   108    1
    70    51    59    1
    71    52   109    1
    72    52   110    1
    73    52   111    1
    74    53    54    1
    75    54    55    2
    76    54    56    1
    77    56   112    1
    78    56   113    1
    79    56   114    1
    80    57   115    1
    81    57   116    1
    82    57   117    1
    83    58   118    1
    84    58   119    1
    85    58   120    1
    86    59   121    1
    87    59   122    1
    88    59   123    1
    89    60    61    2
    90     1    47    1
    91     1    62    1
    92     2    63    1
    93     3    64    1
    94     4    65    1
    95     5     6    1
    96     7     8    2
    97     9    78    1
    98    15    79    1
    99    18    80    1
   100    18    81    1
   101    19    82    1
   102    19    83    1
   103    20    23    1
   104    21    84    1
   105    21    85    1
   106    22    86    1
   107    22    87    1
   108    27    45    1
   109    28    34    1
   110    32    58    1
   111    33    46    2
   112    36    51    1
   113    36    66    1
   114    37    52    1
   115    37    67    1
   116    38    53    1
   117    38    68    1
   118    42    48    1
   119    42    72    1
   120    43    44    2
   121    60    73    1
   122    61    74    1
   123    39    69    1
   124    39    57    1
   125    40    70    1
   126    40    50    1
   127    41    71    1
   128    41    49    1
