@<TRIPOS>MOLECULE
*****
 123 128 0 0 0
SMALL
GASTEIGER

@<TRIPOS>ATOM
     1 C         4.196428   2.855534   2.057957 C.3        1 UNL1     0.0009
     2 C         5.500368   4.129499   1.720629 C.2        1 UNL1     -0.0787
     3 C         6.874845   4.471008   1.420244 C.2        1 UNL1     -0.0649
     4 C         7.514511   5.998594   1.068583 C.2        1 UNL1     -0.0542
     5 C         8.597258   6.696152   0.47854 C.2        1 UNL1     0.0115
     6 C         10.024958   6.532942   -0.111679 C.3        1 UNL1     -0.0348
     7 C         8.404203   8.240337   0.084573 C.2        1 UNL1     0.2441
     8 O         8.849689   9.159533   0.757735 O.2        1 UNL1     -0.2702
     9 N         7.917943   8.46002   -1.215982 N.am        1 UNL1     -0.2772
     10 C         6.54198   8.455632   -1.221314 C.2        1 UNL1     0.1049
     11 C         5.963932   7.269426   -1.276077 C.2        1 UNL1     0.0801
     12 C         4.550786   9.414623   -0.049642 C.ar        1 UNL1     0.0753
     13 C         4.061992   8.073142   0.050951 C.ar        1 UNL1     0.0305
     14 C         4.691424   6.972909   -0.675929 C.2        1 UNL1     0.0924
     15 N         6.492864   6.06205   -1.538759 N.pl3        1 UNL1     -0.3170
     16 C         5.409221   5.121679   -1.646806 C.3        1 UNL1     0.1275
     17 N         4.318847   5.700274   -0.778454 N.2        1 UNL1     -0.2557
     18 C         4.89105   5.191635   -3.080091 C.3        1 UNL1     0.0016
     19 C         6.048894   4.927011   -4.02928 C.3        1 UNL1     0.0026
     20 N         6.603081   3.612505   -3.736057 N.3        1 UNL1     -0.3018
     21 C         7.072443   3.428239   -2.361243 C.3        1 UNL1     0.0026
     22 C         5.892327   3.694442   -1.425104 C.3        1 UNL1     0.0016
     23 C         7.506314   3.138797   -4.765822 C.3        1 UNL1     0.0012
     24 C         6.729288   2.790045   -6.045024 C.3        1 UNL1     -0.0339
     25 C         6.736967   3.958864   -7.043954 C.3        1 UNL1     -0.0615
     26 C         7.28894   1.521378   -6.664745 C.3        1 UNL1     -0.0615
     27 C         3.874995   10.475759   0.5482 C.ar        1 UNL1     0.1347
     28 C         2.684092   10.324995   1.236002 C.ar        1 UNL1     0.0342
     29 C         2.247658   8.9892   1.363838 C.ar        1 UNL1     0.1435
     30 C         2.933381   7.911993   0.801139 C.ar        1 UNL1     0.0774
     31 O         1.049522   8.688525   1.910711 O.3        1 UNL1     -0.4436
     32 C         0.761654   7.361086   1.446048 C.3        1 UNL1     0.3143
     33 C         2.109953   6.760024   1.10396 C.2        1 UNL1     0.2504
     34 C         1.777857   11.437599   1.684276 C.3        1 UNL1     -0.0327
     35 O         0.246087   6.622194   2.560266 O.2        1 UNL1     -0.4528
     36 C         -2.129847   4.05067   1.093877 C.3        1 UNL1     0.0854
     37 C         -1.847857   2.933812   0.016551 C.3        1 UNL1     0.0236
     38 C         -2.230009   1.444222   0.471334 C.3        1 UNL1     0.1131
     39 C         -1.704561   0.886686   1.855287 C.3        1 UNL1     0.0200
     40 C         -0.127107   1.151265   2.328653 C.3        1 UNL1     0.0661
     41 C         1.254386   0.863587   1.387203 C.3        1 UNL1     0.0091
     42 C         2.870353   1.731116   1.349177 C.3        1 UNL1     0.0661
     43 C         5.752909   9.650649   -0.887169 C.2        1 UNL1     0.2131
     44 O         6.03557   10.732568   -1.369135 O.2        1 UNL1     -0.2851
     45 O         4.442242   11.743935   0.441437 O.3        1 UNL1     -0.5056
     46 O         2.436979   5.594302   1.103261 O.2        1 UNL1     -0.2836
     47 C         4.354924   2.288948   3.494564 C.3        1 UNL1     -0.0566
     48 O         3.670219   0.483273   1.396281 O.3        1 UNL1     -0.3909
     49 C         0.83106   0.656102   -0.049891 C.3        1 UNL1     -0.0577
     50 O         -0.005941   2.389923   2.998555 O.3        1 UNL1     -0.3910
     51 O         -2.512981   3.592203   2.370767 O.3        1 UNL1     -0.3753
     52 C         -0.564032   3.243762   -0.820512 C.3        1 UNL1     -0.0564
     53 O         -2.287095   0.465415   -0.664889 O.3        1 UNL1     -0.4608
     54 C         -2.198776   -0.89693   -0.545952 C.2        1 UNL1     0.3042
     55 O         -1.280459   -1.621905   -0.926668 O.2        1 UNL1     -0.2512
     56 C         -3.355379   -1.512708   0.18876 C.3        1 UNL1     0.0332
     57 C         -2.857265   1.12176   2.938887 C.3        1 UNL1     -0.0567
     58 C         -0.057812   7.521389   0.144392 C.3        1 UNL1     0.0210
     59 C         -3.336974   4.493383   3.108856 C.3        1 UNL1     0.0372
     60 C         -1.019003   5.019307   1.301072 C.2        1 UNL1     -0.0208
     61 C         -0.494394   5.505102   2.42692 C.2        1 UNL1     0.0882
     62 H         3.453487   3.659913   2.118996 H        1 UNL1     0.0365
     63 H         4.928531   5.048815   1.863211 H        1 UNL1     0.0576
     64 H         7.626788   3.702376   1.228164 H        1 UNL1     0.0615
     65 H         6.720754   6.688604   1.367442 H        1 UNL1     0.0622
     66 H         -2.963326   4.632859   0.676247 H        1 UNL1     0.0645
     67 H         -2.599863   3.123166   -0.769065 H        1 UNL1     0.0362
     68 H         -3.316748   1.56386   0.59864 H        1 UNL1     0.0741
     69 H         -1.770546   -0.193085   1.843144 H        1 UNL1     0.0359
     70 H         -0.038961   0.393378   3.130462 H        1 UNL1     0.0600
     71 H         1.48674   -0.174196   1.697003 H        1 UNL1     0.0348
     72 H         2.406502   1.996012   2.310419 H        1 UNL1     0.0602
     73 H         -0.72582   5.420423   0.362777 H        1 UNL1     0.0628
     74 H         -0.69809   5.110096   3.422769 H        1 UNL1     0.1022
     75 H         10.345394   5.463905   -0.072756 H        1 UNL1     0.0279
     76 H         10.144999   6.77527   -1.165214 H        1 UNL1     0.0279
     77 H         10.797898   7.01357   0.505784 H        1 UNL1     0.0279
     78 H         8.229047   7.709215   -1.82883 H        1 UNL1     0.1553
     79 H         7.376296   5.928412   -1.99551 H        1 UNL1     0.1484
     80 H         4.091456   4.45195   -3.207691 H        1 UNL1     0.0317
     81 H         4.447929   6.171341   -3.288589 H        1 UNL1     0.0317
     82 H         6.820965   5.707147   -3.957117 H        1 UNL1     0.0428
     83 H         5.657696   4.983412   -5.045564 H        1 UNL1     0.0428
     84 H         7.409614   2.409584   -2.145679 H        1 UNL1     0.0428
     85 H         7.950144   4.051819   -2.141908 H        1 UNL1     0.0428
     86 H         6.23412   3.422308   -0.443723 H        1 UNL1     0.0317
     87 H         5.088011   2.975196   -1.622229 H        1 UNL1     0.0317
     88 H         8.21473   3.945268   -4.996137 H        1 UNL1     0.0429
     89 H         8.096728   2.282468   -4.415271 H        1 UNL1     0.0429
     90 H         5.689447   2.561758   -5.782671 H        1 UNL1     0.0308
     91 H         7.758088   4.246989   -7.311158 H        1 UNL1     0.0233
     92 H         6.189657   3.694687   -7.951848 H        1 UNL1     0.0233
     93 H         6.248429   4.854823   -6.642179 H        1 UNL1     0.0233
     94 H         6.871139   1.37427   -7.666562 H        1 UNL1     0.0233
     95 H         8.375445   1.600318   -6.760861 H        1 UNL1     0.0233
     96 H         7.0511   0.642687   -6.058689 H        1 UNL1     0.0233
     97 H         0.882877   11.062736   2.17184 H        1 UNL1     0.0280
     98 H         2.26352   12.098212   2.414329 H        1 UNL1     0.0280
     99 H         1.470679   12.037497   0.812003 H        1 UNL1     0.0280
     100 H         3.868975   12.400677   0.086928 H        1 UNL1     0.2922
     101 H         3.558756   1.572942   3.697317 H        1 UNL1     0.0236
     102 H         4.4114   3.06468   4.257475 H        1 UNL1     0.0236
     103 H         5.287129   1.711437   3.611467 H        1 UNL1     0.0236
     104 H         3.894467   0.311808   2.331846 H        1 UNL1     0.2098
     105 H         0.510046   1.561563   -0.558714 H        1 UNL1     0.0234
     106 H         1.550577   0.113262   -0.662711 H        1 UNL1     0.0234
     107 H         0.0   0.0   0.0 H        1 UNL1     0.0234
     108 H         -0.220357   3.090916   2.353262 H        1 UNL1     0.2098
     109 H         0.33387   3.321421   -0.191661 H        1 UNL1     0.0234
     110 H         -0.387955   2.519104   -1.622765 H        1 UNL1     0.0234
     111 H         -0.644556   4.205867   -1.343786 H        1 UNL1     0.0234
     112 H         -3.220841   -2.59674   0.252938 H        1 UNL1     0.0342
     113 H         -3.491489   -1.076692   1.177298 H        1 UNL1     0.0342
     114 H         -4.270145   -1.320479   -0.388662 H        1 UNL1     0.0342
     115 H         -3.783   0.593856   2.671453 H        1 UNL1     0.0234
     116 H         -2.584782   0.814805   3.950609 H        1 UNL1     0.0234
     117 H         -3.21259   2.165633   2.983774 H        1 UNL1     0.0234
     118 H         -1.129989   7.689297   0.347496 H        1 UNL1     0.0309
     119 H         0.314184   8.323038   -0.501502 H        1 UNL1     0.0309
     120 H         -0.055994   6.613066   -0.468023 H        1 UNL1     0.0309
     121 H         -2.762843   5.404562   3.274636 H        1 UNL1     0.0524
     122 H         -4.250356   4.772227   2.557478 H        1 UNL1     0.0524
     123 H         -3.620348   4.050711   4.059559 H        1 UNL1     0.0524
@<TRIPOS>BOND
     1     1     2    1
     2     1    42    1
     3     2     3    2
     4     3     4    1
     5     4     5    2
     6     5     7    1
     7     6    75    1
     8     6    76    1
     9     6    77    1
    10     7     9   am
    11     9    10    1
    12    10    11    2
    13    10    43    1
    14    11    14    1
    15    11    15    1
    16    12    13   ar
    17    12    27   ar
    18    12    43    1
    19    13    14    1
    20    13    30   ar
    21    14    17    2
    22    15    16    1
    23    16    17    1
    24    16    18    1
    25    16    22    1
    26    18    19    1
    27    19    20    1
    28    20    21    1
    29    21    22    1
    30    23    24    1
    31    23    88    1
    32    23    89    1
    33    24    25    1
    34    24    26    1
    35    24    90    1
    36    25    91    1
    37    25    92    1
    38    25    93    1
    39    26    94    1
    40    26    95    1
    41    26    96    1
    42    27    28   ar
    43    28    29   ar
    44    29    30   ar
    45    29    31    1
    46    30    33    1
    47    31    32    1
    48    32    33    1
    49    32    35    1
    50    34    97    1
    51    34    98    1
    52    34    99    1
    53    35    61    1
    54    36    37    1
    55    36    60    1
    56    37    38    1
    57    38    39    1
    58    39    40    1
    59    40    41    1
    60    41    42    1
    61    45   100    1
    62    47   101    1
    63    47   102    1
    64    47   103    1
    65    48   104    1
    66    49   105    1
    67    49   106    1
    68    49   107    1
    69    50   108    1
    70    51    59    1
    71    52   109    1
    72    52   110    1
    73    52   111    1
    74    53    54    1
    75    54    55    2
    76    54    56    1
    77    56   112    1
    78    56   113    1
    79    56   114    1
    80    57   115    1
    81    57   116    1
    82    57   117    1
    83    58   118    1
    84    58   119    1
    85    58   120    1
    86    59   121    1
    87    59   122    1
    88    59   123    1
    89    60    61    2
    90     1    47    1
    91     1    62    1
    92     2    63    1
    93     3    64    1
    94     4    65    1
    95     5     6    1
    96     7     8    2
    97     9    78    1
    98    15    79    1
    99    18    80    1
   100    18    81    1
   101    19    82    1
   102    19    83    1
   103    20    23    1
   104    21    84    1
   105    21    85    1
   106    22    86    1
   107    22    87    1
   108    27    45    1
   109    28    34    1
   110    32    58    1
   111    33    46    2
   112    36    51    1
   113    36    66    1
   114    37    52    1
   115    37    67    1
   116    38    53    1
   117    38    68    1
   118    42    48    1
   119    42    72    1
   120    43    44    2
   121    60    73    1
   122    61    74    1
   123    39    69    1
   124    39    57    1
   125    40    70    1
   126    40    50    1
   127    41    71    1
   128    41    49    1
