@<TRIPOS>MOLECULE
*****
 123 128 0 0 0
SMALL
GASTEIGER

@<TRIPOS>ATOM
     1 C         0.59517   -1.568926   5.122835 C.3        1 UNL1     0.0009
     2 C         1.736876   -1.653548   6.581048 C.2        1 UNL1     -0.0787
     3 C         2.731629   -2.362713   7.357963 C.2        1 UNL1     -0.0649
     4 C         3.596136   -1.802506   8.701523 C.2        1 UNL1     -0.0542
     5 C         4.750193   -1.992162   9.501062 C.2        1 UNL1     0.0115
     6 C         5.936988   -2.953021   9.786704 C.3        1 UNL1     -0.0348
     7 C         5.239305   -0.797299   10.455033 C.2        1 UNL1     0.2441
     8 O         5.03545   -0.782828   11.661167 O.2        1 UNL1     -0.2702
     9 N         6.141543   0.100764   9.85871 N.am        1 UNL1     -0.2772
     10 C         5.461072   1.110003   9.217058 C.2        1 UNL1     0.1049
     11 C         5.028764   0.837766   7.999184 C.2        1 UNL1     0.0801
     12 C         3.626876   2.780668   9.536334 C.ar        1 UNL1     0.0753
     13 C         3.081461   2.30062   8.303174 C.ar        1 UNL1     0.0305
     14 C         3.836466   1.404906   7.429838 C.2        1 UNL1     0.0924
     15 N         5.320803   -0.194571   7.189541 N.pl3        1 UNL1     -0.3170
     16 C         4.722156   0.069079   5.907993 C.3        1 UNL1     0.1275
     17 N         3.533103   0.944817   6.219377 N.2        1 UNL1     -0.2557
     18 C         5.697491   0.942194   5.124352 C.3        1 UNL1     0.0016
     19 C         7.039695   0.231278   5.055957 C.3        1 UNL1     0.0026
     20 N         6.853141   -1.058831   4.406461 N.3        1 UNL1     -0.3018
     21 C         5.884918   -1.946519   5.053703 C.3        1 UNL1     0.0026
     22 C         4.543016   -1.214199   5.107586 C.3        1 UNL1     0.0016
     23 C         8.103646   -1.68331   4.023176 C.3        1 UNL1     0.0012
     24 C         8.751305   -0.920563   2.856767 C.3        1 UNL1     -0.0339
     25 C         9.395409   0.39222   3.331937 C.3        1 UNL1     -0.0615
     26 C         9.755833   -1.810922   2.146158 C.3        1 UNL1     -0.0615
     27 C         2.952497   3.727456   10.303748 C.ar        1 UNL1     0.1347
     28 C         1.749598   4.29484   9.922748 C.ar        1 UNL1     0.0342
     29 C         1.207919   3.771206   8.72962 C.ar        1 UNL1     0.1435
     30 C         1.854687   2.796408   7.96891 C.ar        1 UNL1     0.0774
     31 O         0.097349   4.29799   8.169138 O.3        1 UNL1     -0.4436
     32 C         0.135956   3.856576   6.803657 C.3        1 UNL1     0.3143
     33 C         1.001065   2.612511   6.8138 C.2        1 UNL1     0.2504
     34 C         1.096414   5.488808   10.561411 C.3        1 UNL1     -0.0327
     35 O         -1.18951   3.440159   6.452957 O.2        1 UNL1     -0.4528
     36 C         -1.536334   4.097998   2.73072 C.3        1 UNL1     0.0854
     37 C         -0.658083   3.557535   1.537365 C.3        1 UNL1     0.0236
     38 C         -1.476288   2.798714   0.385637 C.3        1 UNL1     0.1131
     39 C         -2.484672   1.642346   0.770661 C.3        1 UNL1     0.0200
     40 C         -2.060942   0.494618   1.90451 C.3        1 UNL1     0.0661
     41 C         -0.617831   -0.396803   1.92469 C.3        1 UNL1     0.0091
     42 C         0.358311   -1.04919   3.334279 C.3        1 UNL1     0.0661
     43 C         4.976747   2.303427   9.926652 C.2        1 UNL1     0.2131
     44 O         5.702826   2.898507   10.70217 O.2        1 UNL1     -0.2851
     45 O         3.530354   4.107732   11.513256 O.3        1 UNL1     -0.5056
     46 O         0.976098   1.671116   6.052876 O.2        1 UNL1     -0.2836
     47 C         -0.642053   -2.477884   5.35317 C.3        1 UNL1     -0.0566
     48 O         0.514496   -2.402182   2.747649 O.3        1 UNL1     -0.3909
     49 C         0.363129   0.240914   0.966291 C.3        1 UNL1     -0.0577
     50 O         -2.371735   0.940473   3.209249 O.3        1 UNL1     -0.3910
     51 O         -2.889326   3.70197   2.72854 O.3        1 UNL1     -0.3753
     52 C         0.743959   3.06465   2.023461 C.3        1 UNL1     -0.0564
     53 O         -0.694178   2.608786   -0.881075 O.3        1 UNL1     -0.4608
     54 C         -0.749088   1.505127   -1.691538 C.2        1 UNL1     0.3042
     55 O         0.072788   0.592665   -1.767507 O.2        1 UNL1     -0.2512
     56 C         -2.002061   1.426556   -2.516523 C.3        1 UNL1     0.0332
     57 C         -3.943662   2.289449   0.874478 C.3        1 UNL1     -0.0567
     58 C         0.863832   4.963884   6.006416 C.3        1 UNL1     0.0210
     59 C         -3.778345   4.601899   3.388568 C.3        1 UNL1     0.0372
     60 C         -1.00411   3.800218   4.088375 C.2        1 UNL1     -0.0208
     61 C         -1.624458   3.353472   5.181229 C.2        1 UNL1     0.0882
     62 H         0.303517   -0.558596   5.434099 H        1 UNL1     0.0365
     63 H         1.479366   -0.725306   7.095368 H        1 UNL1     0.0576
     64 H         3.145231   -3.316944   7.024068 H        1 UNL1     0.0615
     65 H         3.058026   -0.898458   8.999208 H        1 UNL1     0.0622
     66 H         -1.500865   5.191568   2.626349 H        1 UNL1     0.0645
     67 H         -0.331843   4.470569   1.009638 H        1 UNL1     0.0362
     68 H         -2.105957   3.628552   0.030097 H        1 UNL1     0.0741
     69 H         -2.681462   1.044813   -0.109473 H        1 UNL1     0.0359
     70 H         -2.822931   -0.278251   1.687468 H        1 UNL1     0.0600
     71 H         -0.933896   -1.289311   1.349808 H        1 UNL1     0.0348
     72 H         -0.64898   -0.851415   3.728698 H        1 UNL1     0.0602
     73 H         0.006267   4.12133   4.145592 H        1 UNL1     0.0628
     74 H         -2.638403   2.952244   5.194201 H        1 UNL1     0.1022
     75 H         5.57537   -4.005298   9.881465 H        1 UNL1     0.0279
     76 H         6.693301   -3.03434   9.009243 H        1 UNL1     0.0279
     77 H         6.388334   -2.788951   10.776183 H        1 UNL1     0.0279
     78 H         6.697445   -0.386807   9.159192 H        1 UNL1     0.1553
     79 H         6.127923   -0.780002   7.30251 H        1 UNL1     0.1484
     80 H         5.289178   1.124219   4.122896 H        1 UNL1     0.0317
     81 H         5.81301   1.922647   5.598715 H        1 UNL1     0.0317
     82 H         7.488106   0.11123   6.053167 H        1 UNL1     0.0428
     83 H         7.720534   0.87192   4.494632 H        1 UNL1     0.0428
     84 H         5.704396   -2.874846   4.502856 H        1 UNL1     0.0428
     85 H         6.235135   -2.284599   6.038775 H        1 UNL1     0.0428
     86 H         3.832529   -1.937423   5.462752 H        1 UNL1     0.0317
     87 H         4.194918   -0.994551   4.090886 H        1 UNL1     0.0317
     88 H         8.782486   -1.645685   4.885182 H        1 UNL1     0.0429
     89 H         7.960212   -2.742313   3.772748 H        1 UNL1     0.0429
     90 H         7.982442   -0.682761   2.112111 H        1 UNL1     0.0308
     91 H         8.960646   1.256382   2.820755 H        1 UNL1     0.0233
     92 H         9.272616   0.514457   4.410635 H        1 UNL1     0.0233
     93 H         10.475204   0.420318   3.141965 H        1 UNL1     0.0233
     94 H         10.479596   -1.199726   1.59621 H        1 UNL1     0.0233
     95 H         10.306625   -2.409954   2.87674 H        1 UNL1     0.0233
     96 H         9.262696   -2.48312   1.438391 H        1 UNL1     0.0233
     97 H         0.942859   6.297008   9.852564 H        1 UNL1     0.0280
     98 H         0.103755   5.250728   10.965395 H        1 UNL1     0.0280
     99 H         1.732344   5.863427   11.38016 H        1 UNL1     0.0280
     100 H         3.800524   3.391345   12.060449 H        1 UNL1     0.2922
     101 H         -1.508442   -1.864231   5.59905 H        1 UNL1     0.0236
     102 H         -0.469258   -3.257302   6.094542 H        1 UNL1     0.0236
     103 H         -0.933711   -3.020052   4.438193 H        1 UNL1     0.0236
     104 H         -0.326269   -2.630612   2.305037 H        1 UNL1     0.2098
     105 H         0.422461   1.323971   1.03895 H        1 UNL1     0.0234
     106 H         1.362405   -0.194006   0.981079 H        1 UNL1     0.0234
     107 H         0.0   0.0   0.0 H        1 UNL1     0.0234
     108 H         -2.940053   0.260928   3.620348 H        1 UNL1     0.2098
     109 H         1.281801   3.835927   2.592292 H        1 UNL1     0.0234
     110 H         0.695594   2.142182   2.612068 H        1 UNL1     0.0234
     111 H         1.397714   2.807822   1.17931 H        1 UNL1     0.0234
     112 H         -1.992128   0.515498   -3.122511 H        1 UNL1     0.0342
     113 H         -2.900265   1.477929   -1.902982 H        1 UNL1     0.0342
     114 H         -2.016759   2.286034   -3.200808 H        1 UNL1     0.0342
     115 H         -4.638821   1.642826   1.427488 H        1 UNL1     0.0234
     116 H         -3.960637   3.272189   1.349855 H        1 UNL1     0.0234
     117 H         -4.458192   2.372752   -0.098281 H        1 UNL1     0.0234
     118 H         0.157879   5.688166   5.563639 H        1 UNL1     0.0309
     119 H         1.605666   5.505174   6.602143 H        1 UNL1     0.0309
     120 H         1.401533   4.571167   5.136497 H        1 UNL1     0.0309
     121 H         -4.638951   4.025857   3.727522 H        1 UNL1     0.0524
     122 H         -3.319467   5.067009   4.276905 H        1 UNL1     0.0524
     123 H         -4.096534   5.384417   2.705549 H        1 UNL1     0.0524
@<TRIPOS>BOND
     1     1     2    1
     2     1    42    1
     3     2     3    2
     4     3     4    1
     5     4     5    2
     6     5     7    1
     7     6    75    1
     8     6    76    1
     9     6    77    1
    10     7     9   am
    11     9    10    1
    12    10    11    2
    13    10    43    1
    14    11    14    1
    15    11    15    1
    16    12    13   ar
    17    12    27   ar
    18    12    43    1
    19    13    14    1
    20    13    30   ar
    21    14    17    2
    22    15    16    1
    23    16    17    1
    24    16    18    1
    25    16    22    1
    26    18    19    1
    27    19    20    1
    28    20    21    1
    29    21    22    1
    30    23    24    1
    31    23    88    1
    32    23    89    1
    33    24    25    1
    34    24    26    1
    35    24    90    1
    36    25    91    1
    37    25    92    1
    38    25    93    1
    39    26    94    1
    40    26    95    1
    41    26    96    1
    42    27    28   ar
    43    28    29   ar
    44    29    30   ar
    45    29    31    1
    46    30    33    1
    47    31    32    1
    48    32    33    1
    49    32    35    1
    50    34    97    1
    51    34    98    1
    52    34    99    1
    53    35    61    1
    54    36    37    1
    55    36    60    1
    56    37    38    1
    57    38    39    1
    58    39    40    1
    59    40    41    1
    60    41    42    1
    61    45   100    1
    62    47   101    1
    63    47   102    1
    64    47   103    1
    65    48   104    1
    66    49   105    1
    67    49   106    1
    68    49   107    1
    69    50   108    1
    70    51    59    1
    71    52   109    1
    72    52   110    1
    73    52   111    1
    74    53    54    1
    75    54    55    2
    76    54    56    1
    77    56   112    1
    78    56   113    1
    79    56   114    1
    80    57   115    1
    81    57   116    1
    82    57   117    1
    83    58   118    1
    84    58   119    1
    85    58   120    1
    86    59   121    1
    87    59   122    1
    88    59   123    1
    89    60    61    2
    90     1    47    1
    91     1    62    1
    92     2    63    1
    93     3    64    1
    94     4    65    1
    95     5     6    1
    96     7     8    2
    97     9    78    1
    98    15    79    1
    99    18    80    1
   100    18    81    1
   101    19    82    1
   102    19    83    1
   103    20    23    1
   104    21    84    1
   105    21    85    1
   106    22    86    1
   107    22    87    1
   108    27    45    1
   109    28    34    1
   110    32    58    1
   111    33    46    2
   112    36    51    1
   113    36    66    1
   114    37    52    1
   115    37    67    1
   116    38    53    1
   117    38    68    1
   118    42    48    1
   119    42    72    1
   120    43    44    2
   121    60    73    1
   122    61    74    1
   123    39    69    1
   124    39    57    1
   125    40    70    1
   126    40    50    1
   127    41    71    1
   128    41    49    1
