@<TRIPOS>MOLECULE
*****
 123 128 0 0 0
SMALL
GASTEIGER

@<TRIPOS>ATOM
     1 C         2.597247   -4.653333   1.212337 C.3        1 UNL1     0.0009
     2 C         2.389078   -6.40004   1.797758 C.2        1 UNL1     -0.0787
     3 C         2.515377   -7.399876   2.837192 C.2        1 UNL1     -0.0649
     4 C         1.980876   -9.006028   2.806543 C.2        1 UNL1     -0.0542
     5 C         1.640542   -10.131685   3.596574 C.2        1 UNL1     0.0115
     6 C         1.679077   -10.714572   5.036046 C.3        1 UNL1     -0.0348
     7 C         0.764759   -11.305724   2.939591 C.2        1 UNL1     0.2441
     8 O         1.247909   -12.363528   2.559928 O.2        1 UNL1     -0.2702
     9 N         -0.625927   -11.145405   3.067807 N.am        1 UNL1     -0.2772
     10 C         -1.12327   -10.408855   2.017347 C.2        1 UNL1     0.1049
     11 C         -1.027554   -9.096451   2.129846 C.2        1 UNL1     0.0801
     12 C         -1.085421   -10.236371   -0.477879 C.ar        1 UNL1     0.0753
     13 C         -0.774138   -8.85082   -0.299101 C.ar        1 UNL1     0.0305
     14 C         -0.865293   -8.208884   1.010349 C.2        1 UNL1     0.0924
     15 N         -0.712201   -8.341595   3.196276 N.pl3        1 UNL1     -0.3170
     16 C         -0.918016   -6.963937   2.835785 C.3        1 UNL1     0.1275
     17 N         -0.712464   -6.929735   1.341027 N.2        1 UNL1     -0.2557
     18 C         -2.393235   -6.651414   3.067645 C.3        1 UNL1     0.0016
     19 C         -2.739194   -6.981092   4.510979 C.3        1 UNL1     0.0026
     20 N         -1.891032   -6.186396   5.388538 N.3        1 UNL1     -0.3018
     21 C         -0.451191   -6.372567   5.197314 C.3        1 UNL1     0.0026
     22 C         -0.125244   -6.031494   3.742212 C.3        1 UNL1     0.0016
     23 C         -2.337709   -6.198708   6.767295 C.3        1 UNL1     0.0012
     24 C         -3.760516   -6.770852   6.867435 C.3        1 UNL1     -0.0339
     25 C         -4.170503   -7.005735   8.330582 C.3        1 UNL1     -0.0615
     26 C         -4.74066   -5.857486   6.151991 C.3        1 UNL1     -0.0615
     27 C         -1.113516   -10.812018   -1.745932 C.ar        1 UNL1     0.1347
     28 C         -0.8876   -10.096746   -2.908429 C.ar        1 UNL1     0.0342
     29 C         -0.535096   -8.745687   -2.704605 C.ar        1 UNL1     0.1435
     30 C         -0.46757   -8.164111   -1.437944 C.ar        1 UNL1     0.0774
     31 O         -0.392056   -7.890645   -3.740679 O.3        1 UNL1     -0.4436
     32 C         -0.513066   -6.58616   -3.153695 C.3        1 UNL1     0.3143
     33 C         -0.153621   -6.773851   -1.693632 C.2        1 UNL1     0.2504
     34 C         -1.146044   -10.583162   -4.307252 C.3        1 UNL1     -0.0327
     35 O         0.507022   -5.762562   -3.731933 O.2        1 UNL1     -0.4528
     36 C         -0.881229   -2.22974   -3.727901 C.3        1 UNL1     0.0854
     37 C         -1.402325   -1.365412   -2.515911 C.3        1 UNL1     0.0236
     38 C         -0.695387   0.064703   -2.352344 C.3        1 UNL1     0.1131
     39 C         0.883342   0.163063   -2.337868 C.3        1 UNL1     0.0200
     40 C         1.790088   -0.931575   -1.464933 C.3        1 UNL1     0.0661
     41 C         1.538095   -1.361373   0.156605 C.3        1 UNL1     0.0091
     42 C         1.827317   -2.951187   1.025077 C.3        1 UNL1     0.0661
     43 C         -1.465096   -11.019569   0.724081 C.2        1 UNL1     0.2131
     44 O         -2.11094   -12.050877   0.679058 O.2        1 UNL1     -0.2851
     45 O         -1.380365   -12.177059   -1.828941 O.3        1 UNL1     -0.5056
     46 O         0.308764   -5.964157   -0.92133 O.2        1 UNL1     -0.2836
     47 C         4.093535   -4.355506   0.925276 C.3        1 UNL1     -0.0566
     48 O         2.526088   -2.327099   2.174577 O.3        1 UNL1     -0.3909
     49 C         0.175807   -0.864957   0.586994 C.3        1 UNL1     -0.0577
     50 O         2.059218   -2.086101   -2.234583 O.3        1 UNL1     -0.3910
     51 O         0.247224   -1.724152   -4.404957 O.3        1 UNL1     -0.3753
     52 C         -1.774177   -2.254518   -1.284585 C.3        1 UNL1     -0.0564
     53 O         -1.431253   0.996972   -1.4349 O.3        1 UNL1     -0.4608
     54 C         -2.693617   0.794897   -0.941408 C.2        1 UNL1     0.3042
     55 O         -3.546431   0.017063   -1.367462 O.2        1 UNL1     -0.2512
     56 C         -2.993678   1.600141   0.290768 C.3        1 UNL1     0.0332
     57 C         1.358862   0.505966   -3.825978 C.3        1 UNL1     -0.0567
     58 C         -2.006732   -6.198275   -3.253871 C.3        1 UNL1     0.0210
     59 C         1.232033   -2.700517   -4.740711 C.3        1 UNL1     0.0372
     60 C         -0.586283   -3.652351   -3.404879 C.2        1 UNL1     -0.0208
     61 C         0.454394   -4.416764   -3.73866 C.2        1 UNL1     0.0882
     62 H         2.146096   -4.940713   0.254951 H        1 UNL1     0.0365
     63 H         2.037436   -6.880945   0.882581 H        1 UNL1     0.0576
     64 H         2.843188   -7.138704   3.845873 H        1 UNL1     0.0615
     65 H         1.755864   -9.185722   1.751762 H        1 UNL1     0.0622
     66 H         -1.722634   -2.249453   -4.434793 H        1 UNL1     0.0645
     67 H         -2.423688   -1.072415   -2.815129 H        1 UNL1     0.0362
     68 H         -1.008293   0.533764   -3.297645 H        1 UNL1     0.0741
     69 H         1.169037   1.110208   -1.900028 H        1 UNL1     0.0359
     70 H         2.756035   -0.39247   -1.427897 H        1 UNL1     0.0600
     71 H         2.203358   -0.629981   0.656053 H        1 UNL1     0.0348
     72 H         2.432984   -2.991989   0.108116 H        1 UNL1     0.0602
     73 H         -1.430363   -4.084267   -2.927148 H        1 UNL1     0.0628
     74 H         1.379722   -4.041487   -4.177036 H        1 UNL1     0.1022
     75 H         2.07211   -9.95641   5.755594 H        1 UNL1     0.0279
     76 H         0.721369   -10.981704   5.477074 H        1 UNL1     0.0279
     77 H         2.416789   -11.522619   5.148043 H        1 UNL1     0.0279
     78 H         -0.834031   -10.636499   3.92442 H        1 UNL1     0.1553
     79 H         -0.759686   -8.668611   4.143766 H        1 UNL1     0.1484
     80 H         -2.57389   -5.59302   2.84419 H        1 UNL1     0.0317
     81 H         -3.027285   -7.228359   2.385907 H        1 UNL1     0.0317
     82 H         -2.629474   -8.055268   4.720789 H        1 UNL1     0.0428
     83 H         -3.795764   -6.752569   4.654108 H        1 UNL1     0.0428
     84 H         0.162628   -5.706822   5.811987 H        1 UNL1     0.0428
     85 H         -0.126889   -7.380686   5.4903 H        1 UNL1     0.0428
     86 H         0.946663   -6.04933   3.673757 H        1 UNL1     0.0317
     87 H         -0.375184   -4.983192   3.538032 H        1 UNL1     0.0317
     88 H         -1.659967   -6.845113   7.340113 H        1 UNL1     0.0429
     89 H         -2.281159   -5.197574   7.213735 H        1 UNL1     0.0429
     90 H         -3.800721   -7.728764   6.335456 H        1 UNL1     0.0308
     91 H         -3.464618   -7.668613   8.839917 H        1 UNL1     0.0233
     92 H         -4.228081   -6.058779   8.872402 H        1 UNL1     0.0233
     93 H         -5.160993   -7.468544   8.417603 H        1 UNL1     0.0233
     94 H         -4.290507   -4.871817   5.991822 H        1 UNL1     0.0233
     95 H         -4.994686   -6.275077   5.173701 H        1 UNL1     0.0233
     96 H         -5.659971   -5.727754   6.729922 H        1 UNL1     0.0233
     97 H         -0.242255   -10.591658   -4.909185 H        1 UNL1     0.0280
     98 H         -1.527697   -11.612399   -4.323598 H        1 UNL1     0.0280
     99 H         -1.881356   -9.924099   -4.797199 H        1 UNL1     0.0280
     100 H         -1.916364   -12.427415   -2.560822 H        1 UNL1     0.2922
     101 H         4.17657   -3.491873   0.265807 H        1 UNL1     0.0236
     102 H         4.635999   -5.21812   0.539773 H        1 UNL1     0.0236
     103 H         4.640325   -4.064495   1.837705 H        1 UNL1     0.0236
     104 H         1.972674   -2.467409   2.967682 H        1 UNL1     0.2098
     105 H         -0.636063   -1.563686   0.40137 H        1 UNL1     0.0234
     106 H         0.128729   -0.494529   1.610954 H        1 UNL1     0.0234
     107 H         0.0   0.0   0.0 H        1 UNL1     0.0234
     108 H         3.019694   -2.09986   -2.410832 H        1 UNL1     0.2098
     109 H         -2.819781   -2.591383   -1.315353 H        1 UNL1     0.0234
     110 H         -1.113805   -3.119965   -1.163523 H        1 UNL1     0.0234
     111 H         -1.666989   -1.703771   -0.340586 H        1 UNL1     0.0234
     112 H         -4.014806   1.990215   0.240907 H        1 UNL1     0.0342
     113 H         -2.838889   1.025944   1.203008 H        1 UNL1     0.0342
     114 H         -2.306649   2.457173   0.316286 H        1 UNL1     0.0342
     115 H         1.453363   1.588978   -3.985177 H        1 UNL1     0.0234
     116 H         2.310509   0.048886   -4.104358 H        1 UNL1     0.0234
     117 H         0.615349   0.241265   -4.597382 H        1 UNL1     0.0234
     118 H         -2.151787   -5.103759   -3.253353 H        1 UNL1     0.0309
     119 H         -2.503528   -6.624979   -4.130981 H        1 UNL1     0.0309
     120 H         -2.586389   -6.530277   -2.385609 H        1 UNL1     0.0309
     121 H         1.895856   -2.257604   -5.482684 H        1 UNL1     0.0524
     122 H         1.848841   -2.988144   -3.873039 H        1 UNL1     0.0524
     123 H         0.757059   -3.589529   -5.145867 H        1 UNL1     0.0524
@<TRIPOS>BOND
     1     1     2    1
     2     1    42    1
     3     2     3    2
     4     3     4    1
     5     4     5    2
     6     5     7    1
     7     6    75    1
     8     6    76    1
     9     6    77    1
    10     7     9   am
    11     9    10    1
    12    10    11    2
    13    10    43    1
    14    11    14    1
    15    11    15    1
    16    12    13   ar
    17    12    27   ar
    18    12    43    1
    19    13    14    1
    20    13    30   ar
    21    14    17    2
    22    15    16    1
    23    16    17    1
    24    16    18    1
    25    16    22    1
    26    18    19    1
    27    19    20    1
    28    20    21    1
    29    21    22    1
    30    23    24    1
    31    23    88    1
    32    23    89    1
    33    24    25    1
    34    24    26    1
    35    24    90    1
    36    25    91    1
    37    25    92    1
    38    25    93    1
    39    26    94    1
    40    26    95    1
    41    26    96    1
    42    27    28   ar
    43    28    29   ar
    44    29    30   ar
    45    29    31    1
    46    30    33    1
    47    31    32    1
    48    32    33    1
    49    32    35    1
    50    34    97    1
    51    34    98    1
    52    34    99    1
    53    35    61    1
    54    36    37    1
    55    36    60    1
    56    37    38    1
    57    38    39    1
    58    39    40    1
    59    40    41    1
    60    41    42    1
    61    45   100    1
    62    47   101    1
    63    47   102    1
    64    47   103    1
    65    48   104    1
    66    49   105    1
    67    49   106    1
    68    49   107    1
    69    50   108    1
    70    51    59    1
    71    52   109    1
    72    52   110    1
    73    52   111    1
    74    53    54    1
    75    54    55    2
    76    54    56    1
    77    56   112    1
    78    56   113    1
    79    56   114    1
    80    57   115    1
    81    57   116    1
    82    57   117    1
    83    58   118    1
    84    58   119    1
    85    58   120    1
    86    59   121    1
    87    59   122    1
    88    59   123    1
    89    60    61    2
    90     1    47    1
    91     1    62    1
    92     2    63    1
    93     3    64    1
    94     4    65    1
    95     5     6    1
    96     7     8    2
    97     9    78    1
    98    15    79    1
    99    18    80    1
   100    18    81    1
   101    19    82    1
   102    19    83    1
   103    20    23    1
   104    21    84    1
   105    21    85    1
   106    22    86    1
   107    22    87    1
   108    27    45    1
   109    28    34    1
   110    32    58    1
   111    33    46    2
   112    36    51    1
   113    36    66    1
   114    37    52    1
   115    37    67    1
   116    38    53    1
   117    38    68    1
   118    42    48    1
   119    42    72    1
   120    43    44    2
   121    60    73    1
   122    61    74    1
   123    39    69    1
   124    39    57    1
   125    40    70    1
   126    40    50    1
   127    41    71    1
   128    41    49    1
