@<TRIPOS>MOLECULE
*****
 123 128 0 0 0
SMALL
GASTEIGER

@<TRIPOS>ATOM
     1 C         -0.113137   0.952399   4.03381 C.3        1 UNL1     0.0009
     2 C         -1.455616   0.548112   5.246798 C.2        1 UNL1     -0.0787
     3 C         -2.624864   0.94259   6.003957 C.2        1 UNL1     -0.0649
     4 C         -3.606382   -0.028403   6.983832 C.2        1 UNL1     -0.0542
     5 C         -4.877633   -0.148495   7.59749 C.2        1 UNL1     0.0115
     6 C         -6.192839   0.611631   7.922704 C.3        1 UNL1     -0.0348
     7 C         -5.363086   -1.59284   8.102656 C.2        1 UNL1     0.2441
     8 O         -5.335138   -1.930702   9.278068 O.2        1 UNL1     -0.2702
     9 N         -6.064036   -2.346694   7.145303 N.am        1 UNL1     -0.2772
     10 C         -5.189884   -3.087599   6.38357 C.2        1 UNL1     0.1049
     11 C         -4.619368   -2.456711   5.373266 C.2        1 UNL1     0.0801
     12 C         -3.246347   -4.65319   6.55364 C.ar        1 UNL1     0.0753
     13 C         -2.585574   -3.81139   5.603187 C.ar        1 UNL1     0.0305
     14 C         -3.301677   -2.759987   4.884299 C.2        1 UNL1     0.0924
     15 N         -4.904688   -1.261093   4.829557 N.pl3        1 UNL1     -0.3170
     16 C         -4.101711   -1.114335   3.644676 C.3        1 UNL1     0.1275
     17 N         -2.879949   -1.959978   3.909076 N.2        1 UNL1     -0.2557
     18 C         -4.850274   -1.796774   2.503784 C.3        1 UNL1     0.0016
     19 C         -6.239325   -1.187337   2.400273 C.3        1 UNL1     0.0026
     20 N         -6.10592   0.242554   2.158111 N.3        1 UNL1     -0.3018
     21 C         -5.346285   0.976664   3.172214 C.3        1 UNL1     0.0026
     22 C         -3.953052   0.350775   3.256216 C.3        1 UNL1     0.0016
     23 C         -7.349724   0.863578   1.748324 C.3        1 UNL1     0.0012
     24 C         -8.48622   0.477757   2.708155 C.3        1 UNL1     -0.0339
     25 C         -9.829223   0.356174   1.969496 C.3        1 UNL1     -0.0615
     26 C         -8.134509   -0.803939   3.443229 C.3        1 UNL1     -0.0615
     27 C         -2.588537   -5.729278   7.144773 C.ar        1 UNL1     0.1347
     28 C         -1.287582   -6.084815   6.836293 C.ar        1 UNL1     0.0342
     29 C         -0.641117   -5.212739   5.934777 C.ar        1 UNL1     0.1435
     30 C         -1.275869   -4.109843   5.362123 C.ar        1 UNL1     0.0774
     31 O         0.59044   -5.485362   5.451093 O.3        1 UNL1     -0.4436
     32 C         0.70039   -4.682886   4.265843 C.3        1 UNL1     0.3143
     33 C         -0.290319   -3.552718   4.459311 C.2        1 UNL1     0.2504
     34 C         -0.60448   -7.362983   7.23599 C.3        1 UNL1     -0.0327
     35 O         2.007845   -4.096535   4.268183 O.2        1 UNL1     -0.4528
     36 C         2.959455   -3.660782   0.619533 C.3        1 UNL1     0.0854
     37 C         2.207957   -2.868271   -0.518316 C.3        1 UNL1     0.0236
     38 C         3.094124   -1.763922   -1.27122 C.3        1 UNL1     0.1131
     39 C         3.901153   -0.696381   -0.427816 C.3        1 UNL1     0.0200
     40 C         3.192957   0.056626   0.881335 C.3        1 UNL1     0.0661
     41 C         1.671788   0.807311   0.892733 C.3        1 UNL1     0.0091
     42 C         0.435843   0.971505   2.238423 C.3        1 UNL1     0.0661
     43 C         -4.683109   -4.396495   6.82212 C.2        1 UNL1     0.2131
     44 O         -5.442639   -5.232481   7.27707 O.2        1 UNL1     -0.2851
     45 O         -3.288913   -6.471098   8.09378 O.3        1 UNL1     -0.5056
     46 O         -0.260846   -2.436455   3.991398 O.2        1 UNL1     -0.2836
     47 C         0.968796   1.841762   4.703464 C.3        1 UNL1     -0.0566
     48 O         0.216174   2.4209   2.014554 O.3        1 UNL1     -0.3909
     49 C         0.916688   0.398851   -0.352449 C.3        1 UNL1     -0.0577
     50 O         3.359892   -0.71474   2.053875 O.3        1 UNL1     -0.3910
     51 O         4.24594   -3.189694   0.951893 O.3        1 UNL1     -0.3753
     52 C         0.704329   -2.626933   -0.163619 C.3        1 UNL1     -0.0564
     53 O         2.486808   -1.280066   -2.555501 O.3        1 UNL1     -0.4608
     54 C         2.534789   0.007476   -3.022259 C.2        1 UNL1     0.3042
     55 O         1.635973   0.847123   -2.991267 O.2        1 UNL1     -0.2512
     56 C         3.877079   0.398223   -3.572068 C.3        1 UNL1     0.0332
     57 C         5.392808   -1.246754   -0.25395 C.3        1 UNL1     -0.0567
     58 C         0.223198   -5.569098   3.091771 C.3        1 UNL1     0.0210
     59 C         5.320988   -4.007604   0.492369 C.3        1 UNL1     0.0372
     60 C         2.206998   -3.791689   1.896965 C.2        1 UNL1     -0.0208
     61 C         2.609408   -3.628075   3.157933 C.2        1 UNL1     0.0882
     62 H         0.24129   -0.082609   4.110298 H        1 UNL1     0.0365
     63 H         -1.173218   -0.467453   5.532019 H        1 UNL1     0.0576
     64 H         -3.089676   1.921992   5.870429 H        1 UNL1     0.0615
     65 H         -3.019515   -0.941215   7.117419 H        1 UNL1     0.0622
     66 H         3.061516   -4.681172   0.224016 H        1 UNL1     0.0645
     67 H         2.065113   -3.616832   -1.316947 H        1 UNL1     0.0362
     68 H         3.857035   -2.416572   -1.72237 H        1 UNL1     0.0741
     69 H         4.155097   0.135559   -1.071085 H        1 UNL1     0.0359
     70 H         3.887367   0.9089   1.009726 H        1 UNL1     0.0600
     71 H         1.966072   1.84429   0.637726 H        1 UNL1     0.0348
     72 H         1.391351   0.739586   2.730899 H        1 UNL1     0.0602
     73 H         1.24109   -4.183344   1.694787 H        1 UNL1     0.0628
     74 H         3.559765   -3.179113   3.448609 H        1 UNL1     0.1022
     75 H         -6.744345   0.104325   8.750664 H        1 UNL1     0.0279
     76 H         -6.086216   1.626376   8.299523 H        1 UNL1     0.0279
     77 H         -6.928444   0.557031   7.106858 H        1 UNL1     0.0279
     78 H         -6.563981   -1.721386   6.516715 H        1 UNL1     0.1553
     79 H         -5.779822   -0.786531   4.955509 H        1 UNL1     0.1484
     80 H         -4.283966   -1.663117   1.574162 H        1 UNL1     0.0317
     81 H         -4.923064   -2.876299   2.674012 H        1 UNL1     0.0317
     82 H         -6.837539   -1.381859   3.302611 H        1 UNL1     0.0428
     83 H         -6.756328   -1.689552   1.58202 H        1 UNL1     0.0428
     84 H         -5.192733   2.032075   2.926567 H        1 UNL1     0.0428
     85 H         -5.870498   1.000955   4.137579 H        1 UNL1     0.0428
     86 H         -3.386342   0.9918   3.905766 H        1 UNL1     0.0317
     87 H         -3.439555   0.44861   2.291931 H        1 UNL1     0.0317
     88 H         -7.215979   1.952646   1.784883 H        1 UNL1     0.0429
     89 H         -7.601927   0.605138   0.711803 H        1 UNL1     0.0429
     90 H         -8.581369   1.249769   3.480914 H        1 UNL1     0.0308
     91 H         -9.723507   -0.21745   1.043817 H        1 UNL1     0.0233
     92 H         -10.577587   -0.123151   2.604954 H        1 UNL1     0.0233
     93 H         -10.24358   1.333187   1.692747 H        1 UNL1     0.0233
     94 H         -9.04425   -1.288742   3.8136 H        1 UNL1     0.0233
     95 H         -7.634751   -1.499531   2.763262 H        1 UNL1     0.0233
     96 H         -7.476311   -0.608068   4.294334 H        1 UNL1     0.0233
     97 H         -0.261112   -7.928081   6.3746 H        1 UNL1     0.0280
     98 H         0.286688   -7.181185   7.850828 H        1 UNL1     0.0280
     99 H         -1.306182   -7.993878   7.805799 H        1 UNL1     0.0280
     100 H         -4.006189   -6.014027   8.496549 H        1 UNL1     0.2922
     101 H         0.675552   2.889339   4.638296 H        1 UNL1     0.0236
     102 H         1.969163   1.671649   4.306839 H        1 UNL1     0.0236
     103 H         1.05752   1.642712   5.784528 H        1 UNL1     0.0236
     104 H         1.081273   2.820285   1.797607 H        1 UNL1     0.2098
     105 H         0.685092   1.219542   -1.02672 H        1 UNL1     0.0234
     106 H         1.361977   -0.429052   -0.90401 H        1 UNL1     0.0234
     107 H         0.0   -0.0   0.0 H        1 UNL1     0.0234
     108 H         2.746704   -0.358402   2.725286 H        1 UNL1     0.2098
     109 H         0.152294   -3.567726   -0.029912 H        1 UNL1     0.0234
     110 H         0.566698   -1.992751   0.718773 H        1 UNL1     0.0234
     111 H         0.181382   -2.086619   -0.963953 H        1 UNL1     0.0234
     112 H         3.853254   1.439694   -3.906905 H        1 UNL1     0.0342
     113 H         4.677385   0.237784   -2.851226 H        1 UNL1     0.0342
     114 H         4.086087   -0.232222   -4.447294 H        1 UNL1     0.0342
     115 H         6.128772   -0.431303   -0.229749 H        1 UNL1     0.0234
     116 H         5.541577   -1.850087   0.643772 H        1 UNL1     0.0234
     117 H         5.750011   -1.830562   -1.119696 H        1 UNL1     0.0234
     118 H         1.053777   -5.851943   2.421589 H        1 UNL1     0.0309
     119 H         -0.296003   -6.474907   3.420624 H        1 UNL1     0.0309
     120 H         -0.471797   -5.046079   2.425784 H        1 UNL1     0.0309
     121 H         6.169993   -3.838657   1.154188 H        1 UNL1     0.0524
     122 H         5.076468   -5.082096   0.533769 H        1 UNL1     0.0524
     123 H         5.583402   -3.744804   -0.528498 H        1 UNL1     0.0524
@<TRIPOS>BOND
     1     1     2    1
     2     1    42    1
     3     2     3    2
     4     3     4    1
     5     4     5    2
     6     5     7    1
     7     6    75    1
     8     6    76    1
     9     6    77    1
    10     7     9   am
    11     9    10    1
    12    10    11    2
    13    10    43    1
    14    11    14    1
    15    11    15    1
    16    12    13   ar
    17    12    27   ar
    18    12    43    1
    19    13    14    1
    20    13    30   ar
    21    14    17    2
    22    15    16    1
    23    16    17    1
    24    16    18    1
    25    16    22    1
    26    18    19    1
    27    19    20    1
    28    20    21    1
    29    21    22    1
    30    23    24    1
    31    23    88    1
    32    23    89    1
    33    24    25    1
    34    24    26    1
    35    24    90    1
    36    25    91    1
    37    25    92    1
    38    25    93    1
    39    26    94    1
    40    26    95    1
    41    26    96    1
    42    27    28   ar
    43    28    29   ar
    44    29    30   ar
    45    29    31    1
    46    30    33    1
    47    31    32    1
    48    32    33    1
    49    32    35    1
    50    34    97    1
    51    34    98    1
    52    34    99    1
    53    35    61    1
    54    36    37    1
    55    36    60    1
    56    37    38    1
    57    38    39    1
    58    39    40    1
    59    40    41    1
    60    41    42    1
    61    45   100    1
    62    47   101    1
    63    47   102    1
    64    47   103    1
    65    48   104    1
    66    49   105    1
    67    49   106    1
    68    49   107    1
    69    50   108    1
    70    51    59    1
    71    52   109    1
    72    52   110    1
    73    52   111    1
    74    53    54    1
    75    54    55    2
    76    54    56    1
    77    56   112    1
    78    56   113    1
    79    56   114    1
    80    57   115    1
    81    57   116    1
    82    57   117    1
    83    58   118    1
    84    58   119    1
    85    58   120    1
    86    59   121    1
    87    59   122    1
    88    59   123    1
    89    60    61    2
    90     1    47    1
    91     1    62    1
    92     2    63    1
    93     3    64    1
    94     4    65    1
    95     5     6    1
    96     7     8    2
    97     9    78    1
    98    15    79    1
    99    18    80    1
   100    18    81    1
   101    19    82    1
   102    19    83    1
   103    20    23    1
   104    21    84    1
   105    21    85    1
   106    22    86    1
   107    22    87    1
   108    27    45    1
   109    28    34    1
   110    32    58    1
   111    33    46    2
   112    36    51    1
   113    36    66    1
   114    37    52    1
   115    37    67    1
   116    38    53    1
   117    38    68    1
   118    42    48    1
   119    42    72    1
   120    43    44    2
   121    60    73    1
   122    61    74    1
   123    39    69    1
   124    39    57    1
   125    40    70    1
   126    40    50    1
   127    41    71    1
   128    41    49    1
