@<TRIPOS>MOLECULE
*****
 123 128 0 0 0
SMALL
GASTEIGER

@<TRIPOS>ATOM
     1 C         5.170328   1.746622   0.462199 C.3        1 UNL1     0.0009
     2 C         6.604684   2.54695   -0.397531 C.2        1 UNL1     -0.0787
     3 C         7.883369   2.443946   -1.068651 C.2        1 UNL1     -0.0649
     4 C         8.759722   3.674684   -1.83262 C.2        1 UNL1     -0.0542
     5 C         9.776062   3.962022   -2.776848 C.2        1 UNL1     0.0115
     6 C         10.899182   3.331336   -3.645273 C.3        1 UNL1     -0.0348
     7 C         9.871451   5.442904   -3.389122 C.2        1 UNL1     0.2441
     8 O         10.698563   6.264346   -3.018118 O.2        1 UNL1     -0.2702
     9 N         9.11636   5.647074   -4.557156 N.am        1 UNL1     -0.2772
     10 C         7.835796   6.037305   -4.239039 C.2        1 UNL1     0.1049
     11 C         6.989513   5.068549   -3.939808 C.2        1 UNL1     0.0801
     12 C         6.546775   7.651474   -2.828288 C.ar        1 UNL1     0.0753
     13 C         5.787626   6.526612   -2.373328 C.ar        1 UNL1     0.0305
     14 C         5.899207   5.218379   -3.014519 C.2        1 UNL1     0.0924
     15 N         7.108926   3.738778   -4.094651 N.pl3        1 UNL1     -0.3170
     16 C         5.839372   3.143144   -3.772616 C.3        1 UNL1     0.1275
     17 N         5.209178   4.103099   -2.793298 N.2        1 UNL1     -0.2557
     18 C         4.980961   3.199278   -5.032647 C.3        1 UNL1     0.0016
     19 C         5.729474   2.509703   -6.162162 C.3        1 UNL1     0.0026
     20 N         5.998766   1.132491   -5.772552 N.3        1 UNL1     -0.3018
     21 C         6.767388   0.975115   -4.536097 C.3        1 UNL1     0.0026
     22 C         5.994989   1.671136   -3.414112 C.3        1 UNL1     0.0016
     23 C         6.43674   0.308126   -6.881265 C.3        1 UNL1     0.0012
     24 C         5.276423   0.057302   -7.857231 C.3        1 UNL1     -0.0339
     25 C         5.367759   0.975301   -9.087268 C.3        1 UNL1     -0.0615
     26 C         5.237934   -1.408009   -8.254927 C.3        1 UNL1     -0.0615
     27 C         6.346921   8.921486   -2.292336 C.ar        1 UNL1     0.1347
     28 C         5.392698   9.196301   -1.329015 C.ar        1 UNL1     0.0342
     29 C         4.691091   8.064844   -0.861345 C.ar        1 UNL1     0.1435
     30 C         4.905854   6.780593   -1.363137 C.ar        1 UNL1     0.0774
     31 O         3.654165   8.183451   -0.0036 O.3        1 UNL1     -0.4436
     32 C         2.929546   6.951493   -0.138064 C.3        1 UNL1     0.3143
     33 C         3.938575   5.954564   -0.671174 C.2        1 UNL1     0.2504
     34 C         4.950409   10.564826   -0.891271 C.3        1 UNL1     -0.0327
     35 O         2.574022   6.520221   1.181352 O.2        1 UNL1     -0.4528
     36 C         -0.674393   4.592752   0.806188 C.3        1 UNL1     0.0854
     37 C         -0.9861   3.32952   -0.08522 C.3        1 UNL1     0.0236
     38 C         -1.585462   2.072463   0.709963 C.3        1 UNL1     0.1131
     39 C         -0.854845   1.544854   2.01 C.3        1 UNL1     0.0200
     40 C         0.806241   1.396318   2.04422 C.3        1 UNL1     0.0661
     41 C         1.758891   0.621465   0.87389 C.3        1 UNL1     0.0091
     42 C         3.464596   0.978756   0.300901 C.3        1 UNL1     0.0661
     43 C         7.491366   7.437933   -3.952747 C.2        1 UNL1     0.2131
     44 O         7.889689   8.332655   -4.676314 O.2        1 UNL1     -0.2851
     45 O         7.159052   9.953395   -2.758217 O.3        1 UNL1     -0.5056
     46 O         3.952897   4.751481   -0.536117 O.2        1 UNL1     -0.2836
     47 C         5.572364   1.321591   1.900148 C.3        1 UNL1     -0.0566
     48 O         3.910877   -0.432891   0.385773 O.3        1 UNL1     -0.3909
     49 C         0.918687   0.385977   -0.361463 C.3        1 UNL1     -0.0577
     50 O         1.410487   2.614453   2.429908 O.3        1 UNL1     -0.3910
     51 O         -0.792562   4.408339   2.198833 O.3        1 UNL1     -0.3753
     52 C         0.052845   3.162911   -1.241846 C.3        1 UNL1     -0.0564
     53 O         -2.194064   1.031377   -0.183385 O.3        1 UNL1     -0.4608
     54 C         -2.398252   -0.281932   0.150464 C.2        1 UNL1     0.3042
     55 O         -1.75618   -1.258706   -0.233586 O.2        1 UNL1     -0.2512
     56 C         -3.508292   -0.484792   1.142116 C.3        1 UNL1     0.0332
     57 C         -1.568921   2.219764   3.272048 C.3        1 UNL1     -0.0567
     58 C         1.849934   7.194698   -1.218258 C.3        1 UNL1     0.0210
     59 C         -1.100206   5.590602   2.936041 C.3        1 UNL1     0.0372
     60 C         0.654727   5.218481   0.567311 C.2        1 UNL1     -0.0208
     61 C         1.57239   5.655125   1.431013 C.2        1 UNL1     0.0882
     62 H         4.696655   2.732003   0.548042 H        1 UNL1     0.0365
     63 H         6.340893   3.601625   -0.294849 H        1 UNL1     0.0576
     64 H         8.338206   1.475439   -1.288252 H        1 UNL1     0.0615
     65 H         8.275929   4.592249   -1.486931 H        1 UNL1     0.0622
     66 H         -1.419033   5.339561   0.49662 H        1 UNL1     0.0645
     67 H         -1.853816   3.638311   -0.693724 H        1 UNL1     0.0362
     68 H         -2.530113   2.512401   1.064379 H        1 UNL1     0.0741
     69 H         -1.18738   0.535099   2.21056 H        1 UNL1     0.0359
     70 H         0.920753   0.738969   2.927306 H        1 UNL1     0.0600
     71 H         1.802483   -0.39823   1.304332 H        1 UNL1     0.0348
     72 H         3.364055   1.470703   1.279265 H        1 UNL1     0.0602
     73 H         0.768311   5.411754   -0.470472 H        1 UNL1     0.0628
     74 H         1.55928   5.448369   2.501675 H        1 UNL1     0.1022
     75 H         10.890784   2.218783   -3.549412 H        1 UNL1     0.0279
     76 H         10.819145   3.474426   -4.720535 H        1 UNL1     0.0279
     77 H         11.907271   3.572998   -3.277772 H        1 UNL1     0.0279
     78 H         9.050356   4.77535   -5.078517 H        1 UNL1     0.1553
     79 H         7.770596   3.307295   -4.713479 H        1 UNL1     0.1484
     80 H         4.019645   2.710873   -4.832399 H        1 UNL1     0.0317
     81 H         4.755079   4.23547   -5.306388 H        1 UNL1     0.0317
     82 H         6.660004   3.038339   -6.41627 H        1 UNL1     0.0428
     83 H         5.100405   2.562801   -7.051265 H        1 UNL1     0.0428
     84 H         6.887144   -0.066936   -4.223689 H        1 UNL1     0.0428
     85 H         7.797691   1.340817   -4.645895 H        1 UNL1     0.0428
     86 H         6.515037   1.423086   -2.507465 H        1 UNL1     0.0317
     87 H         5.015223   1.195813   -3.282873 H        1 UNL1     0.0317
     88 H         7.23143   0.846499   -7.414104 H        1 UNL1     0.0429
     89 H         6.869138   -0.637187   -6.528861 H        1 UNL1     0.0429
     90 H         4.327195   0.253597   -7.344739 H        1 UNL1     0.0308
     91 H         6.320504   0.846749   -9.609623 H        1 UNL1     0.0233
     92 H         4.548284   0.774015   -9.781208 H        1 UNL1     0.0233
     93 H         5.29069   2.036869   -8.822754 H        1 UNL1     0.0233
     94 H         4.578854   -1.547782   -9.11859 H        1 UNL1     0.0233
     95 H         6.239335   -1.745028   -8.53702 H        1 UNL1     0.0233
     96 H         4.872308   -2.034204   -7.436291 H        1 UNL1     0.0233
     97 H         4.12126   10.520597   -0.191424 H        1 UNL1     0.0280
     98 H         5.749864   11.11292   -0.37579 H        1 UNL1     0.0280
     99 H         4.630005   11.147826   -1.770218 H        1 UNL1     0.0280
     100 H         6.695638   10.732044   -3.012333 H        1 UNL1     0.2922
     101 H         4.688349   0.995937   2.447983 H        1 UNL1     0.0236
     102 H         6.124837   2.092489   2.436313 H        1 UNL1     0.0236
     103 H         6.241009   0.444604   1.901079 H        1 UNL1     0.0236
     104 H         4.246109   -0.582307   1.291458 H        1 UNL1     0.2098
     105 H         0.700092   1.283996   -0.933816 H        1 UNL1     0.0234
     106 H         1.286955   -0.401044   -1.019418 H        1 UNL1     0.0234
     107 H         0.0   -0.0   0.0 H        1 UNL1     0.0234
     108 H         1.263865   3.253076   1.705732 H        1 UNL1     0.2098
     109 H         1.080643   3.061264   -0.866332 H        1 UNL1     0.0234
     110 H         -0.177534   2.326193   -1.910106 H        1 UNL1     0.0234
     111 H         0.063912   4.03807   -1.905111 H        1 UNL1     0.0234
     112 H         -3.60455   -1.548381   1.380566 H        1 UNL1     0.0342
     113 H         -3.363944   0.106545   2.045072 H        1 UNL1     0.0342
     114 H         -4.448218   -0.157598   0.676661 H        1 UNL1     0.0342
     115 H         -2.65686   2.067092   3.255709 H        1 UNL1     0.0234
     116 H         -1.201282   1.859974   4.235087 H        1 UNL1     0.0234
     117 H         -1.508389   3.321704   3.274524 H        1 UNL1     0.0234
     118 H         0.949778   7.680577   -0.802749 H        1 UNL1     0.0309
     119 H         2.215307   7.78281   -2.066096 H        1 UNL1     0.0309
     120 H         1.461003   6.262037   -1.641321 H        1 UNL1     0.0309
     121 H         -0.768574   5.434886   3.962262 H        1 UNL1     0.0524
     122 H         -0.570613   6.47606   2.546767 H        1 UNL1     0.0524
     123 H         -2.169509   5.780673   2.912433 H        1 UNL1     0.0524
@<TRIPOS>BOND
     1     1     2    1
     2     1    42    1
     3     2     3    2
     4     3     4    1
     5     4     5    2
     6     5     7    1
     7     6    75    1
     8     6    76    1
     9     6    77    1
    10     7     9   am
    11     9    10    1
    12    10    11    2
    13    10    43    1
    14    11    14    1
    15    11    15    1
    16    12    13   ar
    17    12    27   ar
    18    12    43    1
    19    13    14    1
    20    13    30   ar
    21    14    17    2
    22    15    16    1
    23    16    17    1
    24    16    18    1
    25    16    22    1
    26    18    19    1
    27    19    20    1
    28    20    21    1
    29    21    22    1
    30    23    24    1
    31    23    88    1
    32    23    89    1
    33    24    25    1
    34    24    26    1
    35    24    90    1
    36    25    91    1
    37    25    92    1
    38    25    93    1
    39    26    94    1
    40    26    95    1
    41    26    96    1
    42    27    28   ar
    43    28    29   ar
    44    29    30   ar
    45    29    31    1
    46    30    33    1
    47    31    32    1
    48    32    33    1
    49    32    35    1
    50    34    97    1
    51    34    98    1
    52    34    99    1
    53    35    61    1
    54    36    37    1
    55    36    60    1
    56    37    38    1
    57    38    39    1
    58    39    40    1
    59    40    41    1
    60    41    42    1
    61    45   100    1
    62    47   101    1
    63    47   102    1
    64    47   103    1
    65    48   104    1
    66    49   105    1
    67    49   106    1
    68    49   107    1
    69    50   108    1
    70    51    59    1
    71    52   109    1
    72    52   110    1
    73    52   111    1
    74    53    54    1
    75    54    55    2
    76    54    56    1
    77    56   112    1
    78    56   113    1
    79    56   114    1
    80    57   115    1
    81    57   116    1
    82    57   117    1
    83    58   118    1
    84    58   119    1
    85    58   120    1
    86    59   121    1
    87    59   122    1
    88    59   123    1
    89    60    61    2
    90     1    47    1
    91     1    62    1
    92     2    63    1
    93     3    64    1
    94     4    65    1
    95     5     6    1
    96     7     8    2
    97     9    78    1
    98    15    79    1
    99    18    80    1
   100    18    81    1
   101    19    82    1
   102    19    83    1
   103    20    23    1
   104    21    84    1
   105    21    85    1
   106    22    86    1
   107    22    87    1
   108    27    45    1
   109    28    34    1
   110    32    58    1
   111    33    46    2
   112    36    51    1
   113    36    66    1
   114    37    52    1
   115    37    67    1
   116    38    53    1
   117    38    68    1
   118    42    48    1
   119    42    72    1
   120    43    44    2
   121    60    73    1
   122    61    74    1
   123    39    69    1
   124    39    57    1
   125    40    70    1
   126    40    50    1
   127    41    71    1
   128    41    49    1
