@<TRIPOS>MOLECULE
*****
 123 128 0 0 0
SMALL
GASTEIGER

@<TRIPOS>ATOM
     1 C         5.166393   1.760297   0.45717 C.3        1 UNL1     0.0009
     2 C         6.595845   2.569028   -0.402864 C.2        1 UNL1     -0.0787
     3 C         7.873642   2.473236   -1.076737 C.2        1 UNL1     -0.0649
     4 C         8.743541   3.709822   -1.838636 C.2        1 UNL1     -0.0542
     5 C         9.756893   4.004133   -2.783928 C.2        1 UNL1     0.0115
     6 C         10.880879   3.380635   -3.656412 C.3        1 UNL1     -0.0348
     7 C         9.845116   5.487238   -3.391879 C.2        1 UNL1     0.2441
     8 O         10.669613   6.310894   -3.019962 O.2        1 UNL1     -0.2702
     9 N         9.08696   5.691891   -4.557841 N.am        1 UNL1     -0.2772
     10 C         7.805444   6.075968   -4.236093 C.2        1 UNL1     0.1049
     11 C         6.963661   5.102892   -3.938189 C.2        1 UNL1     0.0801
     12 C         6.512626   7.680621   -2.817979 C.ar        1 UNL1     0.0753
     13 C         5.758906   6.551322   -2.36499 C.ar        1 UNL1     0.0305
     14 C         5.87454   5.2455   -3.010367 C.2        1 UNL1     0.0924
     15 N         7.08815   3.77409   -4.097302 N.pl3        1 UNL1     -0.3170
     16 C         5.821637   3.172348   -3.774651 C.3        1 UNL1     0.1275
     17 N         5.189452   4.126771   -2.791217 N.2        1 UNL1     -0.2557
     18 C         4.960582   3.228826   -5.032863 C.3        1 UNL1     0.0016
     19 C         5.709702   2.545715   -6.165898 C.3        1 UNL1     0.0026
     20 N         5.985308   1.168429   -5.780991 N.3        1 UNL1     -0.3018
     21 C         6.756938   1.010419   -4.546492 C.3        1 UNL1     0.0026
     22 C         5.983892   1.699902   -3.420922 C.3        1 UNL1     0.0016
     23 C         6.424477   0.349209   -6.89304 C.3        1 UNL1     0.0012
     24 C         5.263307   0.09665   -7.867543 C.3        1 UNL1     -0.0339
     25 C         5.348565   1.018736   -9.094957 C.3        1 UNL1     -0.0615
     26 C         5.229977   -1.367593   -8.269618 C.3        1 UNL1     -0.0615
     27 C         6.30867   8.948183   -2.277789 C.ar        1 UNL1     0.1347
     28 C         5.3552   9.216211   -1.311815 C.ar        1 UNL1     0.0342
     29 C         4.659073   8.080511   -0.846244 C.ar        1 UNL1     0.1435
     30 C         4.87806   6.798667   -1.352348 C.ar        1 UNL1     0.0774
     31 O         3.623329   8.192318   0.013837 O.3        1 UNL1     -0.4436
     32 C         2.903438   6.95785   -0.122985 C.3        1 UNL1     0.3143
     33 C         3.915461   5.966635   -0.66105 C.2        1 UNL1     0.2504
     34 C         4.908225   10.581601   -0.869068 C.3        1 UNL1     -0.0327
     35 O         2.5522   6.521144   1.195792 O.2        1 UNL1     -0.4528
     36 C         -0.689113   4.581687   0.820983 C.3        1 UNL1     0.0854
     37 C         -0.997425   3.319912   -0.073663 C.3        1 UNL1     0.0236
     38 C         -1.59017   2.058034   0.71884 C.3        1 UNL1     0.1131
     39 C         -0.854925   1.529448   2.015868 C.3        1 UNL1     0.0200
     40 C         0.80681   1.387534   2.04646 C.3        1 UNL1     0.0661
     41 C         1.76033   0.620096   0.871962 C.3        1 UNL1     0.0091
     42 C         3.463471   0.986024   0.296801 C.3        1 UNL1     0.0661
     43 C         7.455906   7.474316   -3.944887 C.2        1 UNL1     0.2131
     44 O         7.849216   8.372833   -4.666491 O.2        1 UNL1     -0.2851
     45 O         7.115726   9.984779   -2.742083 O.3        1 UNL1     -0.5056
     46 O         3.934906   4.763216   -0.529678 O.2        1 UNL1     -0.2836
     47 C         5.57291   1.33254   1.89305 C.3        1 UNL1     -0.0566
     48 O         3.915618   -0.424055   0.376529 O.3        1 UNL1     -0.3909
     49 C         0.91871   0.384955   -0.362493 C.3        1 UNL1     -0.0577
     50 O         1.406868   2.606931   2.434693 O.3        1 UNL1     -0.3910
     51 O         -0.803856   4.392576   2.213284 O.3        1 UNL1     -0.3753
     52 C         0.039957   3.161018   -1.232774 C.3        1 UNL1     -0.0564
     53 O         -2.196276   1.017206   -0.176503 O.3        1 UNL1     -0.4608
     54 C         -2.394511   -0.297925   0.153743 C.2        1 UNL1     0.3042
     55 O         -1.812364   -1.279426   -0.306256 O.2        1 UNL1     -0.2512
     56 C         -3.408451   -0.497975   1.243982 C.3        1 UNL1     0.0332
     57 C         -1.569294   2.197632   3.281325 C.3        1 UNL1     -0.0567
     58 C         1.820775   7.199957   -1.200368 C.3        1 UNL1     0.0210
     59 C         -1.114856   5.571344   2.954669 C.3        1 UNL1     0.0372
     60 C         0.637005   5.213513   0.581468 C.2        1 UNL1     -0.0208
     61 C         1.554556   5.651248   1.444737 C.2        1 UNL1     0.0882
     62 H         4.688907   2.743488   0.546914 H        1 UNL1     0.0365
     63 H         6.327991   3.62231   -0.296472 H        1 UNL1     0.0576
     64 H         8.331967   1.507248   -1.30015 H        1 UNL1     0.0615
     65 H         8.256709   4.624369   -1.489236 H        1 UNL1     0.0622
     66 H         -1.43736   5.326411   0.51511 H        1 UNL1     0.0645
     67 H         -1.867552   3.627031   -0.679565 H        1 UNL1     0.0362
     68 H         -2.535908   2.493068   1.076397 H        1 UNL1     0.0741
     69 H         -1.182989   0.517752   2.213993 H        1 UNL1     0.0359
     70 H         0.925677   0.727981   2.927323 H        1 UNL1     0.0600
     71 H         1.808872   -0.400714   1.299218 H        1 UNL1     0.0348
     72 H         3.362826   1.474592   1.276846 H        1 UNL1     0.0602
     73 H         0.74781   5.410389   -0.455938 H        1 UNL1     0.0628
     74 H         1.544342   5.441195   2.514788 H        1 UNL1     0.1022
     75 H         10.877164   2.267771   -3.563917 H        1 UNL1     0.0279
     76 H         10.798197   3.526659   -4.731079 H        1 UNL1     0.0279
     77 H         11.888689   3.625261   -3.290106 H        1 UNL1     0.0279
     78 H         9.023477   4.821491   -5.081723 H        1 UNL1     0.1553
     79 H         7.750367   3.347167   -4.718702 H        1 UNL1     0.1484
     80 H         4.001636   2.735929   -4.832262 H        1 UNL1     0.0317
     81 H         4.729987   4.264921   -5.30302 H        1 UNL1     0.0317
     82 H         6.637597   3.078881   -6.420177 H        1 UNL1     0.0428
     83 H         5.078714   2.598961   -7.05363 H        1 UNL1     0.0428
     84 H         6.881506   -0.032082   -4.237482 H        1 UNL1     0.0428
     85 H         7.785541   1.380619   -4.657148 H        1 UNL1     0.0428
     86 H         6.506682   1.451212   -2.516029 H        1 UNL1     0.0317
     87 H         5.00631   1.220221   -3.289255 H        1 UNL1     0.0317
     88 H         7.215957   0.892408   -7.425759 H        1 UNL1     0.0429
     89 H         6.86137   -0.59541   -6.544338 H        1 UNL1     0.0429
     90 H         4.314282   0.287546   -7.352644 H        1 UNL1     0.0308
     91 H         6.300814   0.895627   -9.619521 H        1 UNL1     0.0233
     92 H         4.528576   0.816239   -9.787938 H        1 UNL1     0.0233
     93 H         5.267714   2.079177   -8.827071 H        1 UNL1     0.0233
     94 H         4.569806   -1.507413   -9.132439 H        1 UNL1     0.0233
     95 H         6.232187   -1.699698   -8.554647 H        1 UNL1     0.0233
     96 H         4.868461   -1.997741   -7.45219 H        1 UNL1     0.0233
     97 H         4.08061   10.531895   -0.167774 H        1 UNL1     0.0280
     98 H         5.706449   11.131362   -0.353453 H        1 UNL1     0.0280
     99 H         4.583777   11.165961   -1.745624 H        1 UNL1     0.0280
     100 H         6.64596   10.746962   -3.031945 H        1 UNL1     0.2922
     101 H         4.711165   0.908752   2.408275 H        1 UNL1     0.0236
     102 H         6.036728   2.135857   2.464484 H        1 UNL1     0.0236
     103 H         6.32172   0.522943   1.88761 H        1 UNL1     0.0236
     104 H         4.335669   -0.550182   1.249809 H        1 UNL1     0.2098
     105 H         0.70043   1.28297   -0.934973 H        1 UNL1     0.0234
     106 H         1.285585   -0.402668   -1.020506 H        1 UNL1     0.0234
     107 H         0.0   -0.0   0.0 H        1 UNL1     0.0234
     108 H         1.256273   3.247148   1.712743 H        1 UNL1     0.2098
     109 H         1.068879   3.062394   -0.859537 H        1 UNL1     0.0234
     110 H         -0.188323   2.325404   -1.903132 H        1 UNL1     0.0234
     111 H         0.04621   4.038221   -1.893397 H        1 UNL1     0.0234
     112 H         -3.512404   -1.564734   1.464356 H        1 UNL1     0.0342
     113 H         -3.159684   0.064234   2.142803 H        1 UNL1     0.0342
     114 H         -4.379094   -0.132924   0.881003 H        1 UNL1     0.0342
     115 H         -2.656637   2.040607   3.266601 H        1 UNL1     0.0234
     116 H         -1.198352   1.836416   4.24256 H        1 UNL1     0.0234
     117 H         -1.513212   3.299796   3.287035 H        1 UNL1     0.0234
     118 H         0.919464   7.680926   -0.781664 H        1 UNL1     0.0309
     119 H         2.182136   7.79211   -2.047112 H        1 UNL1     0.0309
     120 H         1.434804   6.267016   -1.62552 H        1 UNL1     0.0309
     121 H         -0.279018   6.261402   2.84264 H        1 UNL1     0.0524
     122 H         -2.017319   6.07858   2.574787 H        1 UNL1     0.0524
     123 H         -1.262112   5.328028   4.0031 H        1 UNL1     0.0524
@<TRIPOS>BOND
     1     1     2    1
     2     1    42    1
     3     2     3    2
     4     3     4    1
     5     4     5    2
     6     5     7    1
     7     6    75    1
     8     6    76    1
     9     6    77    1
    10     7     9   am
    11     9    10    1
    12    10    11    2
    13    10    43    1
    14    11    14    1
    15    11    15    1
    16    12    13   ar
    17    12    27   ar
    18    12    43    1
    19    13    14    1
    20    13    30   ar
    21    14    17    2
    22    15    16    1
    23    16    17    1
    24    16    18    1
    25    16    22    1
    26    18    19    1
    27    19    20    1
    28    20    21    1
    29    21    22    1
    30    23    24    1
    31    23    88    1
    32    23    89    1
    33    24    25    1
    34    24    26    1
    35    24    90    1
    36    25    91    1
    37    25    92    1
    38    25    93    1
    39    26    94    1
    40    26    95    1
    41    26    96    1
    42    27    28   ar
    43    28    29   ar
    44    29    30   ar
    45    29    31    1
    46    30    33    1
    47    31    32    1
    48    32    33    1
    49    32    35    1
    50    34    97    1
    51    34    98    1
    52    34    99    1
    53    35    61    1
    54    36    37    1
    55    36    60    1
    56    37    38    1
    57    38    39    1
    58    39    40    1
    59    40    41    1
    60    41    42    1
    61    45   100    1
    62    47   101    1
    63    47   102    1
    64    47   103    1
    65    48   104    1
    66    49   105    1
    67    49   106    1
    68    49   107    1
    69    50   108    1
    70    51    59    1
    71    52   109    1
    72    52   110    1
    73    52   111    1
    74    53    54    1
    75    54    55    2
    76    54    56    1
    77    56   112    1
    78    56   113    1
    79    56   114    1
    80    57   115    1
    81    57   116    1
    82    57   117    1
    83    58   118    1
    84    58   119    1
    85    58   120    1
    86    59   121    1
    87    59   122    1
    88    59   123    1
    89    60    61    2
    90     1    47    1
    91     1    62    1
    92     2    63    1
    93     3    64    1
    94     4    65    1
    95     5     6    1
    96     7     8    2
    97     9    78    1
    98    15    79    1
    99    18    80    1
   100    18    81    1
   101    19    82    1
   102    19    83    1
   103    20    23    1
   104    21    84    1
   105    21    85    1
   106    22    86    1
   107    22    87    1
   108    27    45    1
   109    28    34    1
   110    32    58    1
   111    33    46    2
   112    36    51    1
   113    36    66    1
   114    37    52    1
   115    37    67    1
   116    38    53    1
   117    38    68    1
   118    42    48    1
   119    42    72    1
   120    43    44    2
   121    60    73    1
   122    61    74    1
   123    39    69    1
   124    39    57    1
   125    40    70    1
   126    40    50    1
   127    41    71    1
   128    41    49    1
