@<TRIPOS>MOLECULE
*****
 123 128 0 0 0
SMALL
GASTEIGER

@<TRIPOS>ATOM
     1 C         2.813897   4.244982   2.018382 C.3        1 UNL1     0.0009
     2 C         3.462731   5.067494   3.547932 C.2        1 UNL1     -0.0787
     3 C         3.364962   6.10304   4.554974 C.2        1 UNL1     -0.0649
     4 C         4.310849   6.294387   5.946031 C.2        1 UNL1     -0.0542
     5 C         4.382168   6.892426   7.22835 C.2        1 UNL1     0.0115
     6 C         3.703111   7.91983   8.175264 C.3        1 UNL1     -0.0348
     7 C         5.442087   6.325201   8.292218 C.2        1 UNL1     0.2441
     8 O         6.501713   6.884573   8.538841 O.2        1 UNL1     -0.2702
     9 N         4.958834   5.288783   9.109809 N.am        1 UNL1     -0.2772
     10 C         5.157885   4.068425   8.506129 C.2        1 UNL1     0.1049
     11 C         4.250451   3.703083   7.618824 C.2        1 UNL1     0.0801
     12 C         6.895391   2.684064   7.35637 C.ar        1 UNL1     0.0753
     13 C         5.936284   2.488708   6.312072 C.ar        1 UNL1     0.0305
     14 C         4.538739   2.8837   6.473015 C.2        1 UNL1     0.0924
     15 N         3.043022   4.229411   7.351204 N.pl3        1 UNL1     -0.3170
     16 C         2.380617   3.357368   6.417922 C.3        1 UNL1     0.1275
     17 N         3.503476   2.691695   5.660433 N.2        1 UNL1     -0.2557
     18 C         1.705657   2.25565   7.229309 C.3        1 UNL1     0.0016
     19 C         0.781942   2.900189   8.25054 C.3        1 UNL1     0.0026
     20 N         -0.202379   3.709712   7.545691 N.3        1 UNL1     -0.3018
     21 C         0.354074   4.758847   6.688927 C.3        1 UNL1     0.0026
     22 C         1.27503   4.088596   5.6679 C.3        1 UNL1     0.0016
     23 C         -1.303258   4.123285   8.392843 C.3        1 UNL1     0.0012
     24 C         -2.192431   2.920614   8.745989 C.3        1 UNL1     -0.0339
     25 C         -3.669665   3.32961   8.866645 C.3        1 UNL1     -0.0615
     26 C         -2.000629   1.813332   7.724267 C.3        1 UNL1     -0.0615
     27 C         8.195276   2.196679   7.242911 C.ar        1 UNL1     0.1347
     28 C         8.639171   1.46728   6.154341 C.ar        1 UNL1     0.0342
     29 C         7.692235   1.329506   5.117281 C.ar        1 UNL1     0.1435
     30 C         6.39766   1.843514   5.2015 C.ar        1 UNL1     0.0774
     31 O         7.935956   0.553071   4.038969 O.3        1 UNL1     -0.4436
     32 C         6.639098   0.284115   3.485171 C.3        1 UNL1     0.3143
     33 C         5.756566   1.413775   3.976311 C.2        1 UNL1     0.2504
     34 C         9.930832   0.702363   6.073014 C.3        1 UNL1     -0.0327
     35 O         6.745397   0.425751   2.063238 O.2        1 UNL1     -0.4528
     36 C         4.185156   -1.955611   0.585954 C.3        1 UNL1     0.0854
     37 C         2.628188   -2.020645   0.829149 C.3        1 UNL1     0.0236
     38 C         1.73288   -1.94387   -0.499111 C.3        1 UNL1     0.1131
     39 C         1.98311   -0.787285   -1.548856 C.3        1 UNL1     0.0200
     40 C         2.229393   0.780676   -1.035747 C.3        1 UNL1     0.0661
     41 C         1.257911   1.630027   0.065361 C.3        1 UNL1     0.0091
     42 C         1.699168   2.919532   1.293314 C.3        1 UNL1     0.0661
     43 C         6.434502   3.345028   8.602551 C.2        1 UNL1     0.2131
     44 O         6.998406   3.226834   9.675295 O.2        1 UNL1     -0.2851
     45 O         9.079671   2.469348   8.284514 O.3        1 UNL1     -0.5056
     46 O         4.761029   1.870939   3.46079 O.2        1 UNL1     -0.2836
     47 C         3.141344   5.10112   0.76547 C.3        1 UNL1     -0.0566
     48 O         0.593296   3.828397   0.90585 O.3        1 UNL1     -0.3909
     49 C         0.341415   0.650574   0.764074 C.3        1 UNL1     -0.0577
     50 O         3.594966   1.005376   -0.74862 O.3        1 UNL1     -0.3910
     51 O         4.591139   -1.665247   -0.732491 O.3        1 UNL1     -0.3753
     52 C         2.215359   -1.297758   2.152764 C.3        1 UNL1     -0.0564
     53 O         0.305395   -2.355087   -0.285775 O.3        1 UNL1     -0.4608
     54 C         -0.427672   -3.149282   -1.12827 C.2        1 UNL1     0.3042
     55 O         -1.275624   -2.789837   -1.944123 O.2        1 UNL1     -0.2512
     56 C         -0.073932   -4.606633   -1.040472 C.3        1 UNL1     0.0332
     57 C         2.957952   -1.36368   -2.678292 C.3        1 UNL1     -0.0567
     58 C         6.156815   -1.039348   4.123434 C.3        1 UNL1     0.0210
     59 C         5.876384   -2.171952   -1.089229 C.3        1 UNL1     0.0372
     60 C         4.922416   -1.019777   1.478044 C.2        1 UNL1     -0.0208
     61 C         5.873975   -0.128092   1.198444 C.2        1 UNL1     0.0882
     62 H         3.612335   3.498123   2.104457 H        1 UNL1     0.0365
     63 H         4.374936   4.491622   3.717413 H        1 UNL1     0.0576
     64 H         2.520215   6.794877   4.584478 H        1 UNL1     0.0615
     65 H         5.158308   5.623973   5.779176 H        1 UNL1     0.0622
     66 H         4.546523   -2.961974   0.840303 H        1 UNL1     0.0645
     67 H         2.450744   -3.060738   1.153617 H        1 UNL1     0.0362
     68 H         2.064271   -2.867378   -0.997946 H        1 UNL1     0.0741
     69 H         1.109613   -0.695623   -2.180528 H        1 UNL1     0.0359
     70 H         2.05368   1.321819   -1.985141 H        1 UNL1     0.0600
     71 H         0.555672   2.121991   -0.635916 H        1 UNL1     0.0348
     72 H         2.526199   2.894918   0.568931 H        1 UNL1     0.0602
     73 H         4.67448   -1.232077   2.488343 H        1 UNL1     0.0628
     74 H         6.145992   0.187992   0.190806 H        1 UNL1     0.1022
     75 H         3.489864   8.872063   7.632297 H        1 UNL1     0.0279
     76 H         2.72452   7.64788   8.564458 H        1 UNL1     0.0279
     77 H         4.373841   8.270766   8.973177 H        1 UNL1     0.0279
     78 H         3.956885   5.401873   9.249047 H        1 UNL1     0.1553
     79 H         2.544656   4.82944   7.982495 H        1 UNL1     0.1484
     80 H         1.152671   1.597652   6.548126 H        1 UNL1     0.0317
     81 H         2.44944   1.630099   7.734407 H        1 UNL1     0.0317
     82 H         1.340579   3.503515   8.98118 H        1 UNL1     0.0428
     83 H         0.312428   2.096963   8.819252 H        1 UNL1     0.0428
     84 H         -0.401505   5.29929   6.110279 H        1 UNL1     0.0428
     85 H         0.852929   5.543235   7.274757 H        1 UNL1     0.0428
     86 H         1.557102   4.863719   4.979708 H        1 UNL1     0.0317
     87 H         0.700091   3.39278   5.044697 H        1 UNL1     0.0317
     88 H         -0.8845   4.532915   9.321358 H        1 UNL1     0.0429
     89 H         -1.888704   4.924233   7.923259 H        1 UNL1     0.0429
     90 H         -1.8664   2.502392   9.70568 H        1 UNL1     0.0308
     91 H         -3.975974   3.965162   8.030372 H        1 UNL1     0.0233
     92 H         -4.313175   2.447386   8.90109 H        1 UNL1     0.0233
     93 H         -3.873381   3.892755   9.78545 H        1 UNL1     0.0233
     94 H         -2.867645   1.143916   7.725522 H        1 UNL1     0.0233
     95 H         -1.906805   2.241558   6.722377 H        1 UNL1     0.0233
     96 H         -1.106762   1.221471   7.940304 H        1 UNL1     0.0233
     97 H         9.767746   -0.352722   5.874444 H        1 UNL1     0.0280
     98 H         10.575942   1.064609   5.261923 H        1 UNL1     0.0280
     99 H         10.474909   0.79433   7.027277 H        1 UNL1     0.0280
     100 H         9.102517   3.37108   8.552803 H        1 UNL1     0.2922
     101 H         3.964446   4.646629   0.214473 H        1 UNL1     0.0236
     102 H         3.334447   6.14744   0.999795 H        1 UNL1     0.0236
     103 H         2.303478   5.123653   0.048764 H        1 UNL1     0.0236
     104 H         0.489553   3.769922   -0.064092 H        1 UNL1     0.2098
     105 H         0.827621   0.044527   1.524417 H        1 UNL1     0.0234
     106 H         -0.575943   1.087268   1.158638 H        1 UNL1     0.0234
     107 H         -0.0   0.0   0.0 H        1 UNL1     0.0234
     108 H         3.652   1.840321   -0.24525 H        1 UNL1     0.2098
     109 H         2.829618   -0.408065   2.349852 H        1 UNL1     0.0234
     110 H         1.155021   -1.024606   2.18131 H        1 UNL1     0.0234
     111 H         2.34614   -1.94893   3.027303 H        1 UNL1     0.0234
     112 H         -0.678067   -5.179663   -1.750403 H        1 UNL1     0.0342
     113 H         0.98881   -4.780575   -1.202236 H        1 UNL1     0.0342
     114 H         -0.318671   -4.958759   -0.028901 H        1 UNL1     0.0342
     115 H         2.743642   -0.928057   -3.663935 H        1 UNL1     0.0234
     116 H         4.018411   -1.204934   -2.47268 H        1 UNL1     0.0234
     117 H         2.807751   -2.437721   -2.882784 H        1 UNL1     0.0234
     118 H         6.213124   -1.885366   3.416265 H        1 UNL1     0.0309
     119 H         6.701182   -1.299226   5.036851 H        1 UNL1     0.0309
     120 H         5.097086   -1.011149   4.399633 H        1 UNL1     0.0309
     121 H         5.729123   -3.146067   -1.554816 H        1 UNL1     0.0524
     122 H         6.391263   -1.528307   -1.821797 H        1 UNL1     0.0524
     123 H         6.500515   -2.26942   -0.205456 H        1 UNL1     0.0524
@<TRIPOS>BOND
     1     1     2    1
     2     1    42    1
     3     2     3    2
     4     3     4    1
     5     4     5    2
     6     5     7    1
     7     6    75    1
     8     6    76    1
     9     6    77    1
    10     7     9   am
    11     9    10    1
    12    10    11    2
    13    10    43    1
    14    11    14    1
    15    11    15    1
    16    12    13   ar
    17    12    27   ar
    18    12    43    1
    19    13    14    1
    20    13    30   ar
    21    14    17    2
    22    15    16    1
    23    16    17    1
    24    16    18    1
    25    16    22    1
    26    18    19    1
    27    19    20    1
    28    20    21    1
    29    21    22    1
    30    23    24    1
    31    23    88    1
    32    23    89    1
    33    24    25    1
    34    24    26    1
    35    24    90    1
    36    25    91    1
    37    25    92    1
    38    25    93    1
    39    26    94    1
    40    26    95    1
    41    26    96    1
    42    27    28   ar
    43    28    29   ar
    44    29    30   ar
    45    29    31    1
    46    30    33    1
    47    31    32    1
    48    32    33    1
    49    32    35    1
    50    34    97    1
    51    34    98    1
    52    34    99    1
    53    35    61    1
    54    36    37    1
    55    36    60    1
    56    37    38    1
    57    38    39    1
    58    39    40    1
    59    40    41    1
    60    41    42    1
    61    45   100    1
    62    47   101    1
    63    47   102    1
    64    47   103    1
    65    48   104    1
    66    49   105    1
    67    49   106    1
    68    49   107    1
    69    50   108    1
    70    51    59    1
    71    52   109    1
    72    52   110    1
    73    52   111    1
    74    53    54    1
    75    54    55    2
    76    54    56    1
    77    56   112    1
    78    56   113    1
    79    56   114    1
    80    57   115    1
    81    57   116    1
    82    57   117    1
    83    58   118    1
    84    58   119    1
    85    58   120    1
    86    59   121    1
    87    59   122    1
    88    59   123    1
    89    60    61    2
    90     1    47    1
    91     1    62    1
    92     2    63    1
    93     3    64    1
    94     4    65    1
    95     5     6    1
    96     7     8    2
    97     9    78    1
    98    15    79    1
    99    18    80    1
   100    18    81    1
   101    19    82    1
   102    19    83    1
   103    20    23    1
   104    21    84    1
   105    21    85    1
   106    22    86    1
   107    22    87    1
   108    27    45    1
   109    28    34    1
   110    32    58    1
   111    33    46    2
   112    36    51    1
   113    36    66    1
   114    37    52    1
   115    37    67    1
   116    38    53    1
   117    38    68    1
   118    42    48    1
   119    42    72    1
   120    43    44    2
   121    60    73    1
   122    61    74    1
   123    39    69    1
   124    39    57    1
   125    40    70    1
   126    40    50    1
   127    41    71    1
   128    41    49    1
