@<TRIPOS>MOLECULE
*****
 123 128 0 0 0
SMALL
GASTEIGER

@<TRIPOS>ATOM
     1 C         3.355724   4.006759   0.928305 C.3        1 UNL1     0.0009
     2 C         3.693508   5.756147   0.415877 C.2        1 UNL1     -0.0787
     3 C         4.538607   6.732179   -0.239268 C.2        1 UNL1     -0.0649
     4 C         4.215081   8.371056   -0.514532 C.2        1 UNL1     -0.0542
     5 C         4.554498   9.507262   -1.289716 C.2        1 UNL1     0.0115
     6 C         5.57642   10.068304   -2.316473 C.3        1 UNL1     -0.0348
     7 C         3.534603   10.745898   -1.340558 C.2        1 UNL1     0.2441
     8 O         3.702888   11.773237   -0.698078 O.2        1 UNL1     -0.2702
     9 N         2.576785   10.67841   -2.367291 N.am        1 UNL1     -0.2772
     10 C         1.463954   9.990268   -1.941391 C.2        1 UNL1     0.1049
     11 C         1.533057   8.673101   -2.008605 C.2        1 UNL1     0.0801
     12 C         -0.180517   9.846591   -0.061921 C.ar        1 UNL1     0.0753
     13 C         0.088705   8.441051   -0.037732 C.ar        1 UNL1     0.0305
     14 C         0.855717   7.790552   -1.097729 C.2        1 UNL1     0.0924
     15 N         2.433725   7.885475   -2.620951 N.pl3        1 UNL1     -0.3170
     16 C         1.959703   6.529467   -2.538483 C.3        1 UNL1     0.1275
     17 N         1.114595   6.499992   -1.288424 N.2        1 UNL1     -0.2557
     18 C         0.999166   6.314566   -3.704197 C.3        1 UNL1     0.0016
     19 C         1.722971   6.648951   -4.998756 C.3        1 UNL1     0.0026
     20 N         2.891554   5.787892   -5.117164 N.3        1 UNL1     -0.3018
     21 C         3.845451   5.878628   -4.009818 C.3        1 UNL1     0.0026
     22 C         3.09826   5.534374   -2.72021 C.3        1 UNL1     0.0016
     23 C         3.478837   5.813274   -6.441966 C.3        1 UNL1     0.0012
     24 C         2.897146   6.97211   -7.266884 C.3        1 UNL1     -0.0339
     25 C         2.786617   6.602855   -8.755336 C.3        1 UNL1     -0.0615
     26 C         1.555572   7.396369   -6.695075 C.3        1 UNL1     -0.0615
     27 C         -1.012488   10.438509   0.885484 C.ar        1 UNL1     0.1347
     28 C         -1.661046   9.724076   1.876952 C.ar        1 UNL1     0.0342
     29 C         -1.342468   8.349847   1.911131 C.ar        1 UNL1     0.1435
     30 C         -0.482459   7.749366   0.99079 C.ar        1 UNL1     0.0774
     31 O         -1.976605   7.50001   2.748182 O.3        1 UNL1     -0.4436
     32 C         -1.752019   6.199512   2.183257 C.3        1 UNL1     0.3143
     33 C         -0.501002   6.344337   1.340526 C.2        1 UNL1     0.2504
     34 C         -2.756622   10.244173   2.765384 C.3        1 UNL1     -0.0327
     35 O         -1.427271   5.316055   3.263671 O.2        1 UNL1     -0.4528
     36 C         -2.663906   1.885421   2.210309 C.3        1 UNL1     0.0854
     37 C         -2.294496   1.043339   0.92892 C.3        1 UNL1     0.0236
     38 C         -1.743893   -0.433227   1.226129 C.3        1 UNL1     0.1131
     39 C         -0.566391   -0.638293   2.262328 C.3        1 UNL1     0.0200
     40 C         0.753523   0.381608   2.254047 C.3        1 UNL1     0.0661
     41 C         1.671788   0.807311   0.892733 C.3        1 UNL1     0.0091
     42 C         2.558716   2.363029   0.494611 C.3        1 UNL1     0.0661
     43 C         0.384014   10.638699   -1.182693 C.2        1 UNL1     0.2131
     44 O         -0.06559   11.711799   -1.541927 O.2        1 UNL1     -0.2851
     45 O         -1.186074   11.819396   0.818721 O.3        1 UNL1     -0.5056
     46 O         0.309785   5.495709   1.043357 O.2        1 UNL1     -0.2836
     47 C         4.25933   3.612015   2.127326 C.3        1 UNL1     -0.0566
     48 O         3.807438   1.678903   0.080146 O.3        1 UNL1     -0.3909
     49 C         0.916688   0.398851   -0.352449 C.3        1 UNL1     -0.0577
     50 O         0.508545   1.524751   3.048359 O.3        1 UNL1     -0.3910
     51 O         -2.305779   1.313121   3.447907 O.3        1 UNL1     -0.3753
     52 C         -1.698368   1.940211   -0.204748 C.3        1 UNL1     -0.0564
     53 O         -1.734376   -1.32491   0.019011 O.3        1 UNL1     -0.4608
     54 C         -0.771768   -2.254906   -0.274971 C.2        1 UNL1     0.3042
     55 O         0.137346   -2.154302   -1.097911 O.2        1 UNL1     -0.2512
     56 C         -0.852639   -3.492665   0.572451 C.3        1 UNL1     0.0332
     57 C         -1.224488   -0.994077   3.676011 C.3        1 UNL1     -0.0567
     58 C         -2.951916   5.914795   1.250137 C.3        1 UNL1     0.0210
     59 C         -3.400065   0.81932   4.218988 C.3        1 UNL1     0.0372
     60 C         -2.145949   3.280713   2.216698 C.2        1 UNL1     -0.0208
     61 C         -1.549844   3.977084   3.185445 C.2        1 UNL1     0.0882
     62 H         2.399325   4.335845   1.352234 H        1 UNL1     0.0365
     63 H         2.850563   6.271048   0.881485 H        1 UNL1     0.0576
     64 H         5.439028   6.436943   -0.782577 H        1 UNL1     0.0615
     65 H         3.355585   8.578628   0.128635 H        1 UNL1     0.0622
     66 H         -3.759229   1.970757   2.178195 H        1 UNL1     0.0645
     67 H         -3.270329   0.823816   0.461888 H        1 UNL1     0.0362
     68 H         -2.633853   -0.868289   1.705935 H        1 UNL1     0.0741
     69 H         -0.117861   -1.607948   2.092039 H        1 UNL1     0.0359
     70 H         1.464652   -0.222002   2.849875 H        1 UNL1     0.0600
     71 H         2.456196   0.026465   0.936811 H        1 UNL1     0.0348
     72 H         2.400422   2.374155   1.58279 H        1 UNL1     0.0602
     73 H         -2.4298   3.762759   1.314307 H        1 UNL1     0.0628
     74 H         -1.17605   3.54556   4.114586 H        1 UNL1     0.1022
     75 H         6.095957   9.234836   -2.84793 H        1 UNL1     0.0279
     76 H         5.167713   10.651596   -3.138542 H        1 UNL1     0.0279
     77 H         6.423218   10.580889   -1.837003 H        1 UNL1     0.0279
     78 H         2.962952   10.174153   -3.162701 H        1 UNL1     0.1553
     79 H         3.048895   8.203172   -3.34729 H        1 UNL1     0.1484
     80 H         0.653884   5.273665   -3.695722 H        1 UNL1     0.0317
     81 H         0.107447   6.941481   -3.597122 H        1 UNL1     0.0317
     82 H         2.007355   7.710562   -5.043693 H        1 UNL1     0.0428
     83 H         1.019468   6.490642   -5.816724 H        1 UNL1     0.0428
     84 H         4.672237   5.165324   -4.083532 H        1 UNL1     0.0428
     85 H         4.340898   6.858797   -3.976352 H        1 UNL1     0.0428
     86 H         3.850554   5.480532   -1.955263 H        1 UNL1     0.0317
     87 H         2.714905   4.507988   -2.771848 H        1 UNL1     0.0317
     88 H         4.560028   5.969852   -6.333318 H        1 UNL1     0.0429
     89 H         3.343006   4.853457   -6.95682 H        1 UNL1     0.0429
     90 H         3.553074   7.845544   -7.171574 H        1 UNL1     0.0308
     91 H         2.347715   5.609325   -8.887117 H        1 UNL1     0.0233
     92 H         2.180298   7.336754   -9.291413 H        1 UNL1     0.0233
     93 H         3.762495   6.588438   -9.255626 H        1 UNL1     0.0233
     94 H         0.745868   7.096528   -7.369101 H        1 UNL1     0.0233
     95 H         1.389388   6.90848   -5.73055 H        1 UNL1     0.0233
     96 H         1.505847   8.479924   -6.555773 H        1 UNL1     0.0233
     97 H         -3.688849   9.706539   2.620011 H        1 UNL1     0.0280
     98 H         -2.511382   10.138032   3.830206 H        1 UNL1     0.0280
     99 H         -2.934549   11.309808   2.546618 H        1 UNL1     0.0280
     100 H         -0.903421   12.210932   0.010991 H        1 UNL1     0.2922
     101 H         4.132554   4.331678   2.935824 H        1 UNL1     0.0236
     102 H         5.305957   3.486218   1.852135 H        1 UNL1     0.0236
     103 H         3.965761   2.643716   2.565971 H        1 UNL1     0.0236
     104 H         3.943942   0.92284   0.684056 H        1 UNL1     0.2098
     105 H         0.685092   1.219542   -1.02672 H        1 UNL1     0.0234
     106 H         1.361977   -0.429052   -0.90401 H        1 UNL1     0.0234
     107 H         0.0   -0.0   0.0 H        1 UNL1     0.0234
     108 H         1.197644   2.181886   2.831369 H        1 UNL1     0.2098
     109 H         -2.405109   2.712478   -0.539162 H        1 UNL1     0.0234
     110 H         -0.747742   2.408633   0.072079 H        1 UNL1     0.0234
     111 H         -1.454832   1.352498   -1.099862 H        1 UNL1     0.0234
     112 H         -0.046886   -4.181953   0.302287 H        1 UNL1     0.0342
     113 H         -0.829662   -3.262654   1.636599 H        1 UNL1     0.0342
     114 H         -1.808143   -3.991856   0.360351 H        1 UNL1     0.0342
     115 H         -0.595284   -1.681554   4.257961 H        1 UNL1     0.0234
     116 H         -1.426813   -0.123574   4.303178 H        1 UNL1     0.0234
     117 H         -2.157296   -1.577897   3.592554 H        1 UNL1     0.0234
     118 H         -2.635542   5.460817   0.294721 H        1 UNL1     0.0309
     119 H         -3.714873   5.280651   1.712694 H        1 UNL1     0.0309
     120 H         -3.467046   6.82944   0.936813 H        1 UNL1     0.0309
     121 H         -3.114943   0.874793   5.269219 H        1 UNL1     0.0524
     122 H         -4.310974   1.427249   4.089746 H        1 UNL1     0.0524
     123 H         -3.620088   -0.208356   3.944099 H        1 UNL1     0.0524
@<TRIPOS>BOND
     1     1     2    1
     2     1    42    1
     3     2     3    2
     4     3     4    1
     5     4     5    2
     6     5     7    1
     7     6    75    1
     8     6    76    1
     9     6    77    1
    10     7     9   am
    11     9    10    1
    12    10    11    2
    13    10    43    1
    14    11    14    1
    15    11    15    1
    16    12    13   ar
    17    12    27   ar
    18    12    43    1
    19    13    14    1
    20    13    30   ar
    21    14    17    2
    22    15    16    1
    23    16    17    1
    24    16    18    1
    25    16    22    1
    26    18    19    1
    27    19    20    1
    28    20    21    1
    29    21    22    1
    30    23    24    1
    31    23    88    1
    32    23    89    1
    33    24    25    1
    34    24    26    1
    35    24    90    1
    36    25    91    1
    37    25    92    1
    38    25    93    1
    39    26    94    1
    40    26    95    1
    41    26    96    1
    42    27    28   ar
    43    28    29   ar
    44    29    30   ar
    45    29    31    1
    46    30    33    1
    47    31    32    1
    48    32    33    1
    49    32    35    1
    50    34    97    1
    51    34    98    1
    52    34    99    1
    53    35    61    1
    54    36    37    1
    55    36    60    1
    56    37    38    1
    57    38    39    1
    58    39    40    1
    59    40    41    1
    60    41    42    1
    61    45   100    1
    62    47   101    1
    63    47   102    1
    64    47   103    1
    65    48   104    1
    66    49   105    1
    67    49   106    1
    68    49   107    1
    69    50   108    1
    70    51    59    1
    71    52   109    1
    72    52   110    1
    73    52   111    1
    74    53    54    1
    75    54    55    2
    76    54    56    1
    77    56   112    1
    78    56   113    1
    79    56   114    1
    80    57   115    1
    81    57   116    1
    82    57   117    1
    83    58   118    1
    84    58   119    1
    85    58   120    1
    86    59   121    1
    87    59   122    1
    88    59   123    1
    89    60    61    2
    90     1    47    1
    91     1    62    1
    92     2    63    1
    93     3    64    1
    94     4    65    1
    95     5     6    1
    96     7     8    2
    97     9    78    1
    98    15    79    1
    99    18    80    1
   100    18    81    1
   101    19    82    1
   102    19    83    1
   103    20    23    1
   104    21    84    1
   105    21    85    1
   106    22    86    1
   107    22    87    1
   108    27    45    1
   109    28    34    1
   110    32    58    1
   111    33    46    2
   112    36    51    1
   113    36    66    1
   114    37    52    1
   115    37    67    1
   116    38    53    1
   117    38    68    1
   118    42    48    1
   119    42    72    1
   120    43    44    2
   121    60    73    1
   122    61    74    1
   123    39    69    1
   124    39    57    1
   125    40    70    1
   126    40    50    1
   127    41    71    1
   128    41    49    1
