@<TRIPOS>MOLECULE
*****
 123 128 0 0 0
SMALL
GASTEIGER

@<TRIPOS>ATOM
     1 C         4.043234   0.540789   3.656714 C.3        1 UNL1     0.0009
     2 C         5.767205   0.042826   4.12254 C.2        1 UNL1     -0.0787
     3 C         6.67082   -0.755224   4.924191 C.2        1 UNL1     -0.0649
     4 C         8.355401   -0.864768   4.795568 C.2        1 UNL1     -0.0542
     5 C         9.495288   -1.646009   5.107655 C.2        1 UNL1     0.0115
     6 C         9.995834   -2.866882   5.92756 C.3        1 UNL1     -0.0348
     7 C         10.860168   -1.384292   4.304165 C.2        1 UNL1     0.2441
     8 O         11.799042   -0.756421   4.774082 O.2        1 UNL1     -0.2702
     9 N         11.007233   -2.143233   3.130056 N.am        1 UNL1     -0.2772
     10 C         10.442876   -1.487123   2.060317 C.2        1 UNL1     0.1049
     11 C         9.138465   -1.630805   1.911692 C.2        1 UNL1     0.0801
     12 C         10.368321   0.732802   0.90979 C.ar        1 UNL1     0.0753
     13 C         8.942124   0.623777   0.961613 C.ar        1 UNL1     0.0305
     14 C         8.283486   -0.622574   1.346133 C.2        1 UNL1     0.0924
     15 N         8.289565   -2.483579   2.510586 N.pl3        1 UNL1     -0.3170
     16 C         7.007781   -2.349471   1.870822 C.3        1 UNL1     0.1275
     17 N         6.989895   -0.931586   1.354095 N.2        1 UNL1     -0.2557
     18 C         7.021083   -3.249097   0.63867 C.3        1 UNL1     0.0016
     19 C         7.360076   -4.665703   1.074447 C.3        1 UNL1     0.0026
     20 N         6.361885   -5.110453   2.037173 N.3        1 UNL1     -0.3018
     21 C         6.231675   -4.271452   3.230274 C.3        1 UNL1     0.0026
     22 C         5.8865   -2.854294   2.769393 C.3        1 UNL1     0.0016
     23 C         6.416668   -6.536872   2.288113 C.3        1 UNL1     0.0012
     24 C         7.428274   -6.849338   3.402013 C.3        1 UNL1     -0.0339
     25 C         7.528146   -5.693765   4.411336 C.3        1 UNL1     -0.0615
     26 C         7.064944   -8.157069   4.083636 C.3        1 UNL1     -0.0615
     27 C         10.987141   1.883593   0.427234 C.ar        1 UNL1     0.1347
     28 C         10.287652   2.970512   -0.066094 C.ar        1 UNL1     0.0342
     29 C         8.884892   2.860368   0.040187 C.ar        1 UNL1     0.1435
     30 C         8.251606   1.728407   0.554807 C.ar        1 UNL1     0.0774
     31 O         8.062456   3.787973   -0.496614 O.3        1 UNL1     -0.4436
     32 C         6.794463   3.124903   -0.612385 C.3        1 UNL1     0.3143
     33 C         6.837969   2.005811   0.408377 C.2        1 UNL1     0.2504
     34 C         10.875977   4.126298   -0.826443 C.3        1 UNL1     -0.0327
     35 O         5.789417   4.048477   -0.176327 O.2        1 UNL1     -0.4528
     36 C         2.655413   3.175928   -2.132029 C.3        1 UNL1     0.0854
     37 C         1.879463   1.805076   -2.210697 C.3        1 UNL1     0.0236
     38 C         0.322706   1.887086   -1.834499 C.3        1 UNL1     0.1131
     39 C         -0.12391   2.587947   -0.488543 C.3        1 UNL1     0.0200
     40 C         0.705741   2.300029   0.929632 C.3        1 UNL1     0.0661
     41 C         1.114154   0.77484   1.549801 C.3        1 UNL1     0.0091
     42 C         2.563384   0.242172   2.540456 C.3        1 UNL1     0.0661
     43 C         11.166482   -0.454755   1.303373 C.2        1 UNL1     0.2131
     44 O         12.316317   -0.64068   0.948338 O.2        1 UNL1     -0.2851
     45 O         12.379591   1.926541   0.453267 O.3        1 UNL1     -0.5056
     46 O         5.915038   1.477457   0.987079 O.2        1 UNL1     -0.2836
     47 C         3.43289   1.458306   4.750159 C.3        1 UNL1     -0.0566
     48 O         1.75344   -0.500666   3.536095 O.3        1 UNL1     -0.3909
     49 C         0.915145   -0.261694   0.466526 C.3        1 UNL1     -0.0577
     50 O         1.802242   3.182766   1.056844 O.3        1 UNL1     -0.3910
     51 O         1.94018   4.257839   -1.579449 O.3        1 UNL1     -0.3753
     52 C         2.777869   0.602093   -1.774066 C.3        1 UNL1     -0.0564
     53 O         -0.459766   0.675086   -2.248164 O.3        1 UNL1     -0.4608
     54 C         -1.817042   0.629385   -2.431582 C.2        1 UNL1     0.3042
     55 O         -2.4219   0.370641   -3.471311 O.2        1 UNL1     -0.2512
     56 C         -2.60237   0.876971   -1.175128 C.3        1 UNL1     0.0332
     57 C         -0.502699   4.102514   -0.83608 C.3        1 UNL1     -0.0567
     58 C         6.751994   2.506468   -2.029164 C.3        1 UNL1     0.0210
     59 C         0.69135   4.535891   -2.211094 C.3        1 UNL1     0.0372
     60 C         3.962751   3.118731   -1.422975 C.2        1 UNL1     -0.0208
     61 C         4.490247   3.940684   -0.514743 C.2        1 UNL1     0.0882
     62 H         4.462374   1.203669   2.890149 H        1 UNL1     0.0365
     63 H         6.351087   0.726558   3.502813 H        1 UNL1     0.0576
     64 H         6.302477   -1.518145   5.61367 H        1 UNL1     0.0615
     65 H         8.623445   -0.019473   4.15595 H        1 UNL1     0.0622
     66 H         2.890125   3.420634   -3.177531 H        1 UNL1     0.0645
     67 H         1.832797   1.585072   -3.291428 H        1 UNL1     0.0362
     68 H         -0.026261   2.551868   -2.639365 H        1 UNL1     0.0741
     69 H         -1.127899   2.266603   -0.24533 H        1 UNL1     0.0359
     70 H         -0.035255   2.671908   1.662907 H        1 UNL1     0.0600
     71 H         0.233645   0.586388   2.194896 H        1 UNL1     0.0348
     72 H         2.506224   1.334891   2.65006 H        1 UNL1     0.0602
     73 H         4.551268   2.338522   -1.837908 H        1 UNL1     0.0628
     74 H         3.937279   4.726816   0.000485 H        1 UNL1     0.1022
     75 H         11.103983   -2.823421   6.05852 H        1 UNL1     0.0279
     76 H         9.641444   -2.940658   6.953248 H        1 UNL1     0.0279
     77 H         9.878401   -3.818278   5.388341 H        1 UNL1     0.0279
     78 H         10.522628   -3.032238   3.234483 H        1 UNL1     0.1553
     79 H         8.580001   -3.324198   2.975278 H        1 UNL1     0.1484
     80 H         6.039159   -3.203818   0.152315 H        1 UNL1     0.0317
     81 H         7.751644   -2.894948   -0.096524 H        1 UNL1     0.0317
     82 H         8.373667   -4.730185   1.496806 H        1 UNL1     0.0428
     83 H         7.36597   -5.289991   0.180422 H        1 UNL1     0.0428
     84 H         5.421829   -4.581242   3.898099 H        1 UNL1     0.0428
     85 H         7.129916   -4.316246   3.861522 H        1 UNL1     0.0428
     86 H         5.668897   -2.303322   3.665533 H        1 UNL1     0.0317
     87 H         4.92899   -2.857055   2.234355 H        1 UNL1     0.0317
     88 H         5.421862   -6.864142   2.617581 H        1 UNL1     0.0429
     89 H         6.65157   -7.094165   1.372133 H        1 UNL1     0.0429
     90 H         8.416704   -7.009027   2.955112 H        1 UNL1     0.0308
     91 H         8.358316   -5.02387   4.168107 H        1 UNL1     0.0233
     92 H         6.598936   -5.119616   4.434397 H        1 UNL1     0.0233
     93 H         7.694542   -6.047494   5.436042 H        1 UNL1     0.0233
     94 H         6.220565   -8.629013   3.5697 H        1 UNL1     0.0233
     95 H         7.912312   -8.847241   4.043725 H        1 UNL1     0.0233
     96 H         6.787902   -7.998371   5.129595 H        1 UNL1     0.0233
     97 H         10.198828   4.974268   -0.867034 H        1 UNL1     0.0280
     98 H         11.798249   4.500112   -0.362833 H        1 UNL1     0.0280
     99 H         11.099668   3.812956   -1.859339 H        1 UNL1     0.0280
     100 H         12.796646   1.5706   -0.311582 H        1 UNL1     0.2922
     101 H         4.170235   2.196884   5.063977 H        1 UNL1     0.0236
     102 H         3.023399   0.904864   5.594554 H        1 UNL1     0.0236
     103 H         2.586806   2.052858   4.366957 H        1 UNL1     0.0236
     104 H         0.828736   -0.504833   3.220062 H        1 UNL1     0.2098
     105 H         1.688488   -0.267011   -0.297492 H        1 UNL1     0.0234
     106 H         0.73754   -1.273282   0.831318 H        1 UNL1     0.0234
     107 H         0.0   0.0   0.0 H        1 UNL1     0.0234
     108 H         2.375977   2.832495   1.765297 H        1 UNL1     0.2098
     109 H         2.202972   -0.182013   -1.261832 H        1 UNL1     0.0234
     110 H         3.339989   0.161122   -2.604313 H        1 UNL1     0.0234
     111 H         3.554298   0.914019   -1.062865 H        1 UNL1     0.0234
     112 H         -3.43609   1.553982   -1.384682 H        1 UNL1     0.0342
     113 H         -2.955041   -0.049012   -0.723441 H        1 UNL1     0.0342
     114 H         -1.941736   1.370861   -0.449318 H        1 UNL1     0.0342
     115 H         -1.315101   4.477   -0.198152 H        1 UNL1     0.0234
     116 H         0.33231   4.800393   -0.747917 H        1 UNL1     0.0234
     117 H         -0.945379   4.226133   -1.839422 H        1 UNL1     0.0234
     118 H         7.758474   2.422427   -2.475194 H        1 UNL1     0.0309
     119 H         6.265524   1.52624   -2.055657 H        1 UNL1     0.0309
     120 H         6.209873   3.133492   -2.745441 H        1 UNL1     0.0309
     121 H         -0.092969   4.085271   -1.603523 H        1 UNL1     0.0524
     122 H         0.484579   5.617401   -2.271261 H        1 UNL1     0.0524
     123 H         0.675843   4.117654   -3.213557 H        1 UNL1     0.0524
@<TRIPOS>BOND
     1     1     2    1
     2     1    42    1
     3     2     3    2
     4     3     4    1
     5     4     5    2
     6     5     7    1
     7     6    75    1
     8     6    76    1
     9     6    77    1
    10     7     9   am
    11     9    10    1
    12    10    11    2
    13    10    43    1
    14    11    14    1
    15    11    15    1
    16    12    13   ar
    17    12    27   ar
    18    12    43    1
    19    13    14    1
    20    13    30   ar
    21    14    17    2
    22    15    16    1
    23    16    17    1
    24    16    18    1
    25    16    22    1
    26    18    19    1
    27    19    20    1
    28    20    21    1
    29    21    22    1
    30    23    24    1
    31    23    88    1
    32    23    89    1
    33    24    25    1
    34    24    26    1
    35    24    90    1
    36    25    91    1
    37    25    92    1
    38    25    93    1
    39    26    94    1
    40    26    95    1
    41    26    96    1
    42    27    28   ar
    43    28    29   ar
    44    29    30   ar
    45    29    31    1
    46    30    33    1
    47    31    32    1
    48    32    33    1
    49    32    35    1
    50    34    97    1
    51    34    98    1
    52    34    99    1
    53    35    61    1
    54    36    37    1
    55    36    60    1
    56    37    38    1
    57    38    39    1
    58    39    40    1
    59    40    41    1
    60    41    42    1
    61    45   100    1
    62    47   101    1
    63    47   102    1
    64    47   103    1
    65    48   104    1
    66    49   105    1
    67    49   106    1
    68    49   107    1
    69    50   108    1
    70    51    59    1
    71    52   109    1
    72    52   110    1
    73    52   111    1
    74    53    54    1
    75    54    55    2
    76    54    56    1
    77    56   112    1
    78    56   113    1
    79    56   114    1
    80    57   115    1
    81    57   116    1
    82    57   117    1
    83    58   118    1
    84    58   119    1
    85    58   120    1
    86    59   121    1
    87    59   122    1
    88    59   123    1
    89    60    61    2
    90     1    47    1
    91     1    62    1
    92     2    63    1
    93     3    64    1
    94     4    65    1
    95     5     6    1
    96     7     8    2
    97     9    78    1
    98    15    79    1
    99    18    80    1
   100    18    81    1
   101    19    82    1
   102    19    83    1
   103    20    23    1
   104    21    84    1
   105    21    85    1
   106    22    86    1
   107    22    87    1
   108    27    45    1
   109    28    34    1
   110    32    58    1
   111    33    46    2
   112    36    51    1
   113    36    66    1
   114    37    52    1
   115    37    67    1
   116    38    53    1
   117    38    68    1
   118    42    48    1
   119    42    72    1
   120    43    44    2
   121    60    73    1
   122    61    74    1
   123    39    69    1
   124    39    57    1
   125    40    70    1
   126    40    50    1
   127    41    71    1
   128    41    49    1
