@<TRIPOS>MOLECULE
*****
 123 128 0 0 0
SMALL
GASTEIGER

@<TRIPOS>ATOM
     1 C         0.263084   -0.109486   4.115903 C.3        1 UNL1     0.0009
     2 C         -0.914862   -0.905586   5.305738 C.2        1 UNL1     -0.0787
     3 C         -2.041783   -0.811997   6.209804 C.2        1 UNL1     -0.0649
     4 C         -2.828159   -2.069589   7.026156 C.2        1 UNL1     -0.0542
     5 C         -4.019028   -2.458558   7.687679 C.2        1 UNL1     0.0115
     6 C         -5.366515   -1.937978   8.259167 C.3        1 UNL1     -0.0348
     7 C         -4.31155   -4.021867   7.905588 C.2        1 UNL1     0.2441
     8 O         -4.141616   -4.58764   8.976825 O.2        1 UNL1     -0.2702
     9 N         -5.02106   -4.639512   6.860953 N.am        1 UNL1     -0.2772
     10 C         -4.152998   -5.102933   5.899168 C.2        1 UNL1     0.1049
     11 C         -3.743345   -4.217103   5.009386 C.2        1 UNL1     0.0801
     12 C         -2.057993   -6.435335   5.594218 C.ar        1 UNL1     0.0753
     13 C         -1.574029   -5.346337   4.801456 C.ar        1 UNL1     0.0305
     14 C         -2.453382   -4.259817   4.375708 C.2        1 UNL1     0.0924
     15 N         -4.193734   -2.976573   4.7549 N.pl3        1 UNL1     -0.3170
     16 C         -3.522496   -2.498775   3.575322 C.3        1 UNL1     0.1275
     17 N         -2.204476   -3.233943   3.566661 N.2        1 UNL1     -0.2557
     18 C         -4.303222   -3.014927   2.370434 C.3        1 UNL1     0.0016
     19 C         -5.748907   -2.561581   2.497172 C.3        1 UNL1     0.0026
     20 N         -5.779377   -1.106761   2.557156 N.3        1 UNL1     -0.3018
     21 C         -5.004516   -0.513154   3.648756 C.3        1 UNL1     0.0026
     22 C         -3.554885   -0.978017   3.499201 C.3        1 UNL1     0.0016
     23 C         -7.110714   -0.562708   2.377736 C.3        1 UNL1     0.0012
     24 C         -7.578535   -0.751357   0.926078 C.3        1 UNL1     -0.0339
     25 C         -8.901981   -1.531093   0.858564 C.3        1 UNL1     -0.0615
     26 C         -7.688025   0.59661   0.234865 C.3        1 UNL1     -0.0615
     27 C         -1.245839   -7.526424   5.8943 C.ar        1 UNL1     0.1347
     28 C         0.049419   -7.658809   5.426506 C.ar        1 UNL1     0.0342
     29 C         0.520781   -6.55205   4.688897 C.ar        1 UNL1     0.1435
     30 C         -0.269437   -5.436027   4.410928 C.ar        1 UNL1     0.0774
     31 O         1.722884   -6.575986   4.072956 O.3        1 UNL1     -0.4436
     32 C         1.643126   -5.540686   3.081661 C.3        1 UNL1     0.3143
     33 C         0.56866   -4.596026   3.581014 C.2        1 UNL1     0.2504
     34 C         0.888671   -8.90422   5.495126 C.3        1 UNL1     -0.0327
     35 O         2.881348   -4.82042   3.117391 O.2        1 UNL1     -0.4528
     36 C         3.4428   -3.540271   -0.411643 C.3        1 UNL1     0.0854
     37 C         2.514859   -2.623722   -1.298427 C.3        1 UNL1     0.0236
     38 C         3.214757   -1.293963   -1.858451 C.3        1 UNL1     0.1131
     39 C         3.988045   -0.335853   -0.865314 C.3        1 UNL1     0.0200
     40 C         3.334054   0.046424   0.620821 C.3        1 UNL1     0.0661
     41 C         1.754282   0.598304   0.898958 C.3        1 UNL1     0.0091
     42 C         0.638486   0.339899   2.332007 C.3        1 UNL1     0.0661
     43 C         -3.481839   -6.406501   6.01146 C.2        1 UNL1     0.2131
     44 O         -4.110227   -7.399816   6.329568 O.2        1 UNL1     -0.2851
     45 O         -1.778979   -8.522512   6.70978 O.3        1 UNL1     -0.5056
     46 O         0.444997   -3.411835   3.36135 O.2        1 UNL1     -0.2836
     47 C         1.310095   0.742707   4.882399 C.3        1 UNL1     -0.0566
     48 O         0.257962   1.769207   2.438756 O.3        1 UNL1     -0.3909
     49 C         0.930538   0.369055   -0.348594 C.3        1 UNL1     -0.0577
     50 O         3.683931   -0.924098   1.586945 O.3        1 UNL1     -0.3910
     51 O         4.702181   -3.002012   -0.077474 O.3        1 UNL1     -0.3753
     52 C         1.03427   -2.635176   -0.795761 C.3        1 UNL1     -0.0564
     53 O         2.446341   -0.630826   -2.963943 O.3        1 UNL1     -0.4608
     54 C         2.565298   0.681973   -3.338561 C.2        1 UNL1     0.3042
     55 O         1.79707   1.606309   -3.075375 O.2        1 UNL1     -0.2512
     56 C         3.821718   0.976446   -4.107591 C.3        1 UNL1     0.0332
     57 C         5.536137   -0.734354   -0.918086 C.3        1 UNL1     -0.0567
     58 C         1.148182   -6.216815   1.781889 C.3        1 UNL1     0.0210
     59 C         5.719964   -3.969789   0.174304 C.3        1 UNL1     0.0372
     60 C         2.828658   -4.015779   0.857957 C.2        1 UNL1     -0.0208
     61 C         3.328409   -4.068433   2.09336 C.2        1 UNL1     0.0882
     62 H         0.722828   -1.090298   3.944567 H        1 UNL1     0.0365
     63 H         -0.509016   -1.918531   5.347 H        1 UNL1     0.0576
     64 H         -2.610745   0.113708   6.321431 H        1 UNL1     0.0615
     65 H         -2.144782   -2.916501   6.92024 H        1 UNL1     0.0622
     66 H         3.607237   -4.43937   -1.022076 H        1 UNL1     0.0645
     67 H         2.372562   -3.204336   -2.226435 H        1 UNL1     0.0362
     68 H         3.992778   -1.748003   -2.490948 H        1 UNL1     0.0741
     69 H         4.098391   0.633759   -1.332309 H        1 UNL1     0.0359
     70 H         3.950477   0.928656   0.879177 H        1 UNL1     0.0600
     71 H         1.920543   1.692396   0.851242 H        1 UNL1     0.0348
     72 H         1.653701   0.12388   2.695313 H        1 UNL1     0.0602
     73 H         1.891218   -4.466499   0.645106 H        1 UNL1     0.0628
     74 H         4.253038   -3.581918   2.405773 H        1 UNL1     0.1022
     75 H         -5.498385   -0.853816   8.026277 H        1 UNL1     0.0279
     76 H         -6.27119   -2.378114   7.845751 H        1 UNL1     0.0279
     77 H         -5.386369   -1.927484   9.358802 H        1 UNL1     0.0279
     78 H         -5.636082   -3.96071   6.417046 H        1 UNL1     0.1553
     79 H         -5.095683   -2.642017   5.040368 H        1 UNL1     0.1484
     80 H         -3.841505   -2.62941   1.453396 H        1 UNL1     0.0317
     81 H         -4.253717   -4.107473   2.310913 H        1 UNL1     0.0317
     82 H         -6.238805   -3.004355   3.376867 H        1 UNL1     0.0428
     83 H         -6.287908   -2.941885   1.6289 H        1 UNL1     0.0428
     84 H         -4.978636   0.580705   3.62397 H        1 UNL1     0.0428
     85 H         -5.436689   -0.747606   4.631393 H        1 UNL1     0.0428
     86 H         -2.995902   -0.422523   4.229237 H        1 UNL1     0.0317
     87 H         -3.145202   -0.626315   2.544444 H        1 UNL1     0.0317
     88 H         -7.795167   -1.109574   3.039368 H        1 UNL1     0.0429
     89 H         -7.153031   0.493518   2.67332 H        1 UNL1     0.0429
     90 H         -6.815073   -1.310702   0.372477 H        1 UNL1     0.0308
     91 H         -9.625859   -1.149618   1.584911 H        1 UNL1     0.0233
     92 H         -9.334167   -1.472537   -0.143133 H        1 UNL1     0.0233
     93 H         -8.769156   -2.598557   1.072369 H        1 UNL1     0.0233
     94 H         -8.283098   0.504638   -0.680157 H        1 UNL1     0.0233
     95 H         -8.188278   1.313766   0.891673 H        1 UNL1     0.0233
     96 H         -6.70288   0.989594   -0.031634 H        1 UNL1     0.0233
     97 H         1.824133   -8.795471   4.954465 H        1 UNL1     0.0280
     98 H         1.165476   -9.160425   6.526142 H        1 UNL1     0.0280
     99 H         0.332298   -9.748787   5.056661 H        1 UNL1     0.0280
     100 H         -1.669382   -9.397625   6.38147 H        1 UNL1     0.2922
     101 H         2.085524   1.07868   4.194294 H        1 UNL1     0.0236
     102 H         1.726481   0.23174   5.749878 H        1 UNL1     0.0236
     103 H         0.872852   1.671121   5.286203 H        1 UNL1     0.0236
     104 H         0.908586   2.20477   3.023516 H        1 UNL1     0.2098
     105 H         0.735774   1.26708   -0.92948 H        1 UNL1     0.0234
     106 H         1.296683   -0.427632   -0.996015 H        1 UNL1     0.0234
     107 H         0.0   -0.0   0.0 H        1 UNL1     0.0234
     108 H         3.219018   -1.749715   1.350341 H        1 UNL1     0.2098
     109 H         0.945578   -2.292897   0.244763 H        1 UNL1     0.0234
     110 H         0.359248   -2.052609   -1.431924 H        1 UNL1     0.0234
     111 H         0.608833   -3.647428   -0.812971 H        1 UNL1     0.0234
     112 H         3.864668   2.041072   -4.356735 H        1 UNL1     0.0342
     113 H         4.714763   0.665179   -3.567751 H        1 UNL1     0.0342
     114 H         3.788049   0.411304   -5.04921 H        1 UNL1     0.0342
     115 H         5.918656   -0.751135   -1.947934 H        1 UNL1     0.0234
     116 H         6.184368   -0.074776   -0.337741 H        1 UNL1     0.0234
     117 H         5.73425   -1.772461   -0.600239 H        1 UNL1     0.0234
     118 H         1.972598   -6.691758   1.221734 H        1 UNL1     0.0309
     119 H         0.360341   -6.95664   1.955576 H        1 UNL1     0.0309
     120 H         0.736604   -5.498248   1.064692 H        1 UNL1     0.0309
     121 H         6.453464   -3.51195   0.837416 H        1 UNL1     0.0524
     122 H         5.32792   -4.866867   0.681836 H        1 UNL1     0.0524
     123 H         6.192158   -4.269603   -0.756952 H        1 UNL1     0.0524
@<TRIPOS>BOND
     1     1     2    1
     2     1    42    1
     3     2     3    2
     4     3     4    1
     5     4     5    2
     6     5     7    1
     7     6    75    1
     8     6    76    1
     9     6    77    1
    10     7     9   am
    11     9    10    1
    12    10    11    2
    13    10    43    1
    14    11    14    1
    15    11    15    1
    16    12    13   ar
    17    12    27   ar
    18    12    43    1
    19    13    14    1
    20    13    30   ar
    21    14    17    2
    22    15    16    1
    23    16    17    1
    24    16    18    1
    25    16    22    1
    26    18    19    1
    27    19    20    1
    28    20    21    1
    29    21    22    1
    30    23    24    1
    31    23    88    1
    32    23    89    1
    33    24    25    1
    34    24    26    1
    35    24    90    1
    36    25    91    1
    37    25    92    1
    38    25    93    1
    39    26    94    1
    40    26    95    1
    41    26    96    1
    42    27    28   ar
    43    28    29   ar
    44    29    30   ar
    45    29    31    1
    46    30    33    1
    47    31    32    1
    48    32    33    1
    49    32    35    1
    50    34    97    1
    51    34    98    1
    52    34    99    1
    53    35    61    1
    54    36    37    1
    55    36    60    1
    56    37    38    1
    57    38    39    1
    58    39    40    1
    59    40    41    1
    60    41    42    1
    61    45   100    1
    62    47   101    1
    63    47   102    1
    64    47   103    1
    65    48   104    1
    66    49   105    1
    67    49   106    1
    68    49   107    1
    69    50   108    1
    70    51    59    1
    71    52   109    1
    72    52   110    1
    73    52   111    1
    74    53    54    1
    75    54    55    2
    76    54    56    1
    77    56   112    1
    78    56   113    1
    79    56   114    1
    80    57   115    1
    81    57   116    1
    82    57   117    1
    83    58   118    1
    84    58   119    1
    85    58   120    1
    86    59   121    1
    87    59   122    1
    88    59   123    1
    89    60    61    2
    90     1    47    1
    91     1    62    1
    92     2    63    1
    93     3    64    1
    94     4    65    1
    95     5     6    1
    96     7     8    2
    97     9    78    1
    98    15    79    1
    99    18    80    1
   100    18    81    1
   101    19    82    1
   102    19    83    1
   103    20    23    1
   104    21    84    1
   105    21    85    1
   106    22    86    1
   107    22    87    1
   108    27    45    1
   109    28    34    1
   110    32    58    1
   111    33    46    2
   112    36    51    1
   113    36    66    1
   114    37    52    1
   115    37    67    1
   116    38    53    1
   117    38    68    1
   118    42    48    1
   119    42    72    1
   120    43    44    2
   121    60    73    1
   122    61    74    1
   123    39    69    1
   124    39    57    1
   125    40    70    1
   126    40    50    1
   127    41    71    1
   128    41    49    1
