@<TRIPOS>MOLECULE
*****
 123 128 0 0 0
SMALL
GASTEIGER

@<TRIPOS>ATOM
     1 C         1.329254   0.583532   -3.936784 C.3        1 UNL1     0.0009
     2 C         0.606452   -0.132432   -5.486619 C.2        1 UNL1     -0.0787
     3 C         0.653558   -1.096415   -6.565769 C.2        1 UNL1     -0.0649
     4 C         -0.50191   -1.362923   -7.774167 C.2        1 UNL1     -0.0542
     5 C         -0.984232   -2.283974   -8.736513 C.2        1 UNL1     0.0115
     6 C         -0.67797   -3.627216   -9.454306 C.3        1 UNL1     -0.0348
     7 C         -2.460138   -2.081226   -9.334495 C.2        1 UNL1     0.2441
     8 O         -2.669961   -1.60376   -10.441078 O.2        1 UNL1     -0.2702
     9 N         -3.480937   -2.72644   -8.614898 N.am        1 UNL1     -0.2772
     10 C         -3.951722   -1.90985   -7.612469 C.2        1 UNL1     0.1049
     11 C         -3.254528   -1.90407   -6.490814 C.2        1 UNL1     0.0801
     12 C         -4.765515   0.412603   -7.163819 C.ar        1 UNL1     0.0753
     13 C         -3.835194   0.444455   -6.076576 C.ar        1 UNL1     0.0305
     14 C         -3.144301   -0.761335   -5.625146 C.2        1 UNL1     0.0924
     15 N         -2.270799   -2.723108   -6.080959 N.pl3        1 UNL1     -0.3170
     16 C         -1.966298   -2.394266   -4.7137 C.3        1 UNL1     0.1275
     17 N         -2.334474   -0.936345   -4.584724 N.2        1 UNL1     -0.2557
     18 C         -2.951115   -3.159115   -3.834584 C.3        1 UNL1     0.0016
     19 C         -2.846849   -4.640109   -4.162265 C.3        1 UNL1     0.0026
     20 N         -1.479042   -5.077632   -3.919969 N.3        1 UNL1     -0.3018
     21 C         -0.452617   -4.356867   -4.675825 C.3        1 UNL1     0.0026
     22 C         -0.572597   -2.872116   -4.32795 C.3        1 UNL1     0.0016
     23 C         -1.34146   -6.520426   -3.91229 C.3        1 UNL1     0.0012
     24 C         -2.007878   -7.118393   -2.663259 C.3        1 UNL1     -0.0339
     25 C         -1.25063   -8.35875   -2.161117 C.3        1 UNL1     -0.0615
     26 C         -2.12818   -6.060437   -1.580191 C.3        1 UNL1     -0.0615
     27 C         -5.50961   1.537966   -7.510227 C.ar        1 UNL1     0.1347
     28 C         -5.438922   2.735322   -6.82074 C.ar        1 UNL1     0.0342
     29 C         -4.480783   2.758085   -5.785069 C.ar        1 UNL1     0.1435
     30 C         -3.702309   1.649528   -5.449954 C.ar        1 UNL1     0.0774
     31 O         -4.369819   3.814775   -4.950744 O.3        1 UNL1     -0.4436
     32 C         -3.678486   3.299546   -3.802933 C.3        1 UNL1     0.3143
     33 C         -2.928037   2.082852   -4.30562 C.2        1 UNL1     0.2504
     34 C         -6.380615   3.897289   -6.972882 C.3        1 UNL1     -0.0327
     35 O         -2.694341   4.270805   -3.426944 O.2        1 UNL1     -0.4528
     36 C         -2.275428   3.927249   0.329992 C.3        1 UNL1     0.0854
     37 C         -1.874681   2.657818   1.175846 C.3        1 UNL1     0.0236
     38 C         -0.606426   2.858628   2.136547 C.3        1 UNL1     0.1131
     39 C         0.734774   3.459173   1.551057 C.3        1 UNL1     0.0200
     40 C         1.317737   2.944098   0.075492 C.3        1 UNL1     0.0661
     41 C         1.520647   1.329646   -0.404071 C.3        1 UNL1     0.0091
     42 C         1.378539   0.553329   -2.060133 C.3        1 UNL1     0.0661
     43 C         -4.977414   -0.884113   -7.853663 C.2        1 UNL1     0.2131
     44 O         -5.976478   -1.148534   -8.497628 O.2        1 UNL1     -0.2851
     45 O         -6.359193   1.436161   -8.609901 O.3        1 UNL1     -0.5056
     46 O         -1.908325   1.594429   -3.872623 O.2        1 UNL1     -0.2836
     47 C         2.579441   1.441068   -4.270917 C.3        1 UNL1     -0.0566
     48 O         2.64932   -0.201679   -1.940986 O.3        1 UNL1     -0.3909
     49 C         0.782437   0.435617   0.567141 C.3        1 UNL1     -0.0577
     50 O         0.746245   3.692953   -0.978233 O.3        1 UNL1     -0.3910
     51 O         -1.37891   5.013723   0.387098 O.3        1 UNL1     -0.3753
     52 C         -2.115928   1.331215   0.384092 C.3        1 UNL1     -0.0564
     53 O         -0.460314   1.781481   3.17131 O.3        1 UNL1     -0.4608
     54 C         0.6892   1.488782   3.857513 C.2        1 UNL1     0.3042
     55 O         1.787913   1.199695   3.385182 O.2        1 UNL1     -0.2512
     56 C         0.545381   1.603626   5.348432 C.3        1 UNL1     0.0332
     57 C         0.725884   5.032073   1.84102 C.3        1 UNL1     -0.0567
     58 C         -4.767765   2.837587   -2.807145 C.3        1 UNL1     0.0210
     59 C         -1.125972   5.648585   -0.865434 C.3        1 UNL1     0.0372
     60 C         -2.540551   3.664788   -1.110835 C.2        1 UNL1     -0.0208
     61 C         -2.147906   4.331075   -2.197406 C.2        1 UNL1     0.0882
     62 H         0.480212   1.275621   -3.883379 H        1 UNL1     0.0365
     63 H         -0.230672   0.548438   -5.654276 H        1 UNL1     0.0576
     64 H         1.409012   -1.884735   -6.596551 H        1 UNL1     0.0615
     65 H         -1.154365   -0.48802   -7.708371 H        1 UNL1     0.0622
     66 H         -3.233823   4.252995   0.758262 H        1 UNL1     0.0645
     67 H         -2.69244   2.555979   1.910324 H        1 UNL1     0.0362
     68 H         -1.005068   3.63466   2.807651 H        1 UNL1     0.0741
     69 H         1.546878   3.218319   2.224023 H        1 UNL1     0.0359
     70 H         2.359423   3.312049   0.143039 H        1 UNL1     0.0600
     71 H         2.571347   1.166411   -0.093683 H        1 UNL1     0.0348
     72 H         1.518154   1.629107   -2.240481 H        1 UNL1     0.0602
     73 H         -3.245374   2.87558   -1.19815 H        1 UNL1     0.0628
     74 H         -1.386955   5.112217   -2.200327 H        1 UNL1     0.1022
     75 H         0.377553   -3.645359   -9.818417 H        1 UNL1     0.0279
     76 H         -0.73087   -4.526263   -8.8444 H        1 UNL1     0.0279
     77 H         -1.2342   -3.742589   -10.396113 H        1 UNL1     0.0279
     78 H         -3.111397   -3.567546   -8.176655 H        1 UNL1     0.1553
     79 H         -2.103936   -3.632204   -6.471642 H        1 UNL1     0.1484
     80 H         -2.715895   -2.964439   -2.781237 H        1 UNL1     0.0317
     81 H         -3.975578   -2.807412   -3.997158 H        1 UNL1     0.0317
     82 H         -3.152124   -4.850427   -5.197874 H        1 UNL1     0.0428
     83 H         -3.558585   -5.166521   -3.525577 H        1 UNL1     0.0428
     84 H         0.569599   -4.649688   -4.416709 H        1 UNL1     0.0428
     85 H         -0.522456   -4.557447   -5.753882 H        1 UNL1     0.0428
     86 H         0.271927   -2.396934   -4.791598 H        1 UNL1     0.0317
     87 H         -0.391432   -2.722454   -3.25656 H        1 UNL1     0.0317
     88 H         -1.847927   -6.916545   -4.802164 H        1 UNL1     0.0429
     89 H         -0.288029   -6.820915   -3.981306 H        1 UNL1     0.0429
     90 H         -3.034912   -7.412486   -2.910087 H        1 UNL1     0.0308
     91 H         -1.33899   -9.191016   -2.865836 H        1 UNL1     0.0233
     92 H         -0.1935   -8.129881   -2.00715 H        1 UNL1     0.0233
     93 H         -1.629561   -8.717211   -1.196362 H        1 UNL1     0.0233
     94 H         -1.806616   -5.086908   -1.965774 H        1 UNL1     0.0233
     95 H         -3.170211   -5.969178   -1.26112 H        1 UNL1     0.0233
     96 H         -1.513096   -6.307963   -0.710495 H        1 UNL1     0.0233
     97 H         -7.204   3.669391   -7.643202 H        1 UNL1     0.0280
     98 H         -6.840795   4.184727   -6.018488 H        1 UNL1     0.0280
     99 H         -5.834307   4.764343   -7.378913 H        1 UNL1     0.0280
     100 H         -5.960366   1.071515   -9.380351 H        1 UNL1     0.2922
     101 H         2.328419   2.499341   -4.202331 H        1 UNL1     0.0236
     102 H         3.028292   1.18859   -5.231006 H        1 UNL1     0.0236
     103 H         3.388829   1.297217   -3.535804 H        1 UNL1     0.0236
     104 H         3.365277   0.370543   -2.280014 H        1 UNL1     0.2098
     105 H         1.382793   -0.371027   0.980311 H        1 UNL1     0.0234
     106 H         0.258956   0.963401   1.364223 H        1 UNL1     0.0234
     107 H         -0.0   0.0   0.0 H        1 UNL1     0.0234
     108 H         0.39517   4.5178   -0.590752 H        1 UNL1     0.2098
     109 H         -3.0818   1.329427   -0.140121 H        1 UNL1     0.0234
     110 H         -1.313604   1.101382   -0.325271 H        1 UNL1     0.0234
     111 H         -2.138563   0.459733   1.05189 H        1 UNL1     0.0234
     112 H         1.500318   1.378353   5.832883 H        1 UNL1     0.0342
     113 H         0.175603   2.582481   5.650011 H        1 UNL1     0.0342
     114 H         -0.186115   0.854432   5.681279 H        1 UNL1     0.0342
     115 H         0.536587   5.250894   2.90096 H        1 UNL1     0.0234
     116 H         1.650651   5.540375   1.560867 H        1 UNL1     0.0234
     117 H         -0.113715   5.56324   1.360525 H        1 UNL1     0.0234
     118 H         -4.404628   2.840936   -1.764491 H        1 UNL1     0.0309
     119 H         -5.685568   3.430932   -2.868646 H        1 UNL1     0.0309
     120 H         -5.068597   1.796327   -2.966468 H        1 UNL1     0.0309
     121 H         -0.386347   5.049125   -1.39549 H        1 UNL1     0.0524
     122 H         -2.027549   5.6993   -1.498383 H        1 UNL1     0.0524
     123 H         -0.749109   6.655098   -0.707318 H        1 UNL1     0.0524
@<TRIPOS>BOND
     1     1     2    1
     2     1    42    1
     3     2     3    2
     4     3     4    1
     5     4     5    2
     6     5     7    1
     7     6    75    1
     8     6    76    1
     9     6    77    1
    10     7     9   am
    11     9    10    1
    12    10    11    2
    13    10    43    1
    14    11    14    1
    15    11    15    1
    16    12    13   ar
    17    12    27   ar
    18    12    43    1
    19    13    14    1
    20    13    30   ar
    21    14    17    2
    22    15    16    1
    23    16    17    1
    24    16    18    1
    25    16    22    1
    26    18    19    1
    27    19    20    1
    28    20    21    1
    29    21    22    1
    30    23    24    1
    31    23    88    1
    32    23    89    1
    33    24    25    1
    34    24    26    1
    35    24    90    1
    36    25    91    1
    37    25    92    1
    38    25    93    1
    39    26    94    1
    40    26    95    1
    41    26    96    1
    42    27    28   ar
    43    28    29   ar
    44    29    30   ar
    45    29    31    1
    46    30    33    1
    47    31    32    1
    48    32    33    1
    49    32    35    1
    50    34    97    1
    51    34    98    1
    52    34    99    1
    53    35    61    1
    54    36    37    1
    55    36    60    1
    56    37    38    1
    57    38    39    1
    58    39    40    1
    59    40    41    1
    60    41    42    1
    61    45   100    1
    62    47   101    1
    63    47   102    1
    64    47   103    1
    65    48   104    1
    66    49   105    1
    67    49   106    1
    68    49   107    1
    69    50   108    1
    70    51    59    1
    71    52   109    1
    72    52   110    1
    73    52   111    1
    74    53    54    1
    75    54    55    2
    76    54    56    1
    77    56   112    1
    78    56   113    1
    79    56   114    1
    80    57   115    1
    81    57   116    1
    82    57   117    1
    83    58   118    1
    84    58   119    1
    85    58   120    1
    86    59   121    1
    87    59   122    1
    88    59   123    1
    89    60    61    2
    90     1    47    1
    91     1    62    1
    92     2    63    1
    93     3    64    1
    94     4    65    1
    95     5     6    1
    96     7     8    2
    97     9    78    1
    98    15    79    1
    99    18    80    1
   100    18    81    1
   101    19    82    1
   102    19    83    1
   103    20    23    1
   104    21    84    1
   105    21    85    1
   106    22    86    1
   107    22    87    1
   108    27    45    1
   109    28    34    1
   110    32    58    1
   111    33    46    2
   112    36    51    1
   113    36    66    1
   114    37    52    1
   115    37    67    1
   116    38    53    1
   117    38    68    1
   118    42    48    1
   119    42    72    1
   120    43    44    2
   121    60    73    1
   122    61    74    1
   123    39    69    1
   124    39    57    1
   125    40    70    1
   126    40    50    1
   127    41    71    1
   128    41    49    1
