@<TRIPOS>MOLECULE
*****
 123 128 0 0 0
SMALL
GASTEIGER

@<TRIPOS>ATOM
     1 C         -1.492207   3.217536   -2.241921 C.3        1 UNL1     0.0009
     2 C         -3.267055   3.603129   -2.613767 C.2        1 UNL1     -0.0787
     3 C         -4.385173   3.608738   -3.533455 C.2        1 UNL1     -0.0649
     4 C         -5.991781   4.0379   -3.215672 C.2        1 UNL1     -0.0542
     5 C         -7.333514   3.920618   -3.655076 C.2        1 UNL1     0.0115
     6 C         -8.234686   3.446366   -4.828233 C.3        1 UNL1     -0.0348
     7 C         -8.519937   4.24737   -2.62424 C.2        1 UNL1     0.2441
     8 O         -9.147055   5.297565   -2.642652 O.2        1 UNL1     -0.2702
     9 N         -8.964518   3.147485   -1.870085 N.am        1 UNL1     -0.2772
     10 C         -8.21986   3.021385   -0.719908 C.2        1 UNL1     0.1049
     11 C         -7.066308   2.389574   -0.839718 C.2        1 UNL1     0.0801
     12 C         -7.349143   4.321292   1.231867 C.ar        1 UNL1     0.0753
     13 C         -6.065327   3.765597   0.929163 C.ar        1 UNL1     0.0305
     14 C         -5.90992   2.679565   -0.035946 C.2        1 UNL1     0.0924
     15 N         -6.583159   1.659429   -1.859513 N.pl3        1 UNL1     -0.3170
     16 C         -5.357852   1.046825   -1.419519 C.3        1 UNL1     0.1275
     17 N         -4.82456   1.984282   -0.363821 N.2        1 UNL1     -0.2557
     18 C         -5.73197   -0.241119   -0.692239 C.3        1 UNL1     0.0016
     19 C         -6.564483   -1.103531   -1.627523 C.3        1 UNL1     0.0026
     20 N         -5.782976   -1.385333   -2.82371 N.3        1 UNL1     -0.3018
     21 C         -5.32381   -0.204972   -3.55875 C.3        1 UNL1     0.0026
     22 C         -4.485901   0.644614   -2.601667 C.3        1 UNL1     0.0016
     23 C         -6.359463   -2.435422   -3.639564 C.3        1 UNL1     0.0012
     24 C         -6.223787   -3.796949   -2.939854 C.3        1 UNL1     -0.0339
     25 C         -6.011249   -4.932147   -3.954846 C.3        1 UNL1     -0.0615
     26 C         -5.104001   -3.746498   -1.915006 C.3        1 UNL1     -0.0615
     27 C         -7.505319   5.270999   2.238735 C.ar        1 UNL1     0.1347
     28 C         -6.462331   5.711496   3.033839 C.ar        1 UNL1     0.0342
     29 C         -5.199493   5.187122   2.685363 C.ar        1 UNL1     0.1435
     30 C         -5.022186   4.262303   1.655561 C.ar        1 UNL1     0.0774
     31 O         -4.102695   5.434327   3.434316 O.3        1 UNL1     -0.4436
     32 C         -3.175607   4.399773   3.072266 C.3        1 UNL1     0.3143
     33 C         -3.610452   3.942533   1.694567 C.2        1 UNL1     0.2504
     34 C         -6.594396   6.531343   4.287038 C.3        1 UNL1     -0.0327
     35 O         -1.889713   5.01377   2.921485 O.2        1 UNL1     -0.4528
     36 C         0.650708   2.348384   3.843474 C.3        1 UNL1     0.0854
     37 C         0.858528   0.913134   3.223481 C.3        1 UNL1     0.0236
     38 C         2.34167   0.615078   2.691319 C.3        1 UNL1     0.1131
     39 C         3.046301   1.640721   1.714682 C.3        1 UNL1     0.0200
     40 C         2.200166   2.317363   0.446357 C.3        1 UNL1     0.0661
     41 C         1.266823   1.470879   -0.689401 C.3        1 UNL1     0.0091
     42 C         -0.254615   1.967059   -1.586304 C.3        1 UNL1     0.0661
     43 C         -8.523325   3.786948   0.498359 C.2        1 UNL1     0.2131
     44 O         -9.667139   3.869036   0.907856 O.2        1 UNL1     -0.2851
     45 O         -8.780732   5.795079   2.438987 O.3        1 UNL1     -0.5056
     46 O         -2.938259   3.446528   0.818217 O.2        1 UNL1     -0.2836
     47 C         -0.560485   4.254092   -2.92561 C.3        1 UNL1     -0.0566
     48 O         0.241955   1.517688   -2.909406 O.3        1 UNL1     -0.3909
     49 C         1.041959   0.063122   -0.184276 C.3        1 UNL1     -0.0577
     50 O         1.514236   3.480053   0.865136 O.3        1 UNL1     -0.3910
     51 O         1.729193   3.244508   3.697654 O.3        1 UNL1     -0.3753
     52 C         -0.413473   0.419507   2.459742 C.3        1 UNL1     -0.0564
     53 O         2.6074   -0.839935   2.437051 O.3        1 UNL1     -0.4608
     54 C         3.362017   -1.342688   1.409568 C.2        1 UNL1     0.3042
     55 O         4.355983   -2.062715   1.495771 O.2        1 UNL1     -0.2512
     56 C         2.836788   -0.987185   0.047781 C.3        1 UNL1     0.0332
     57 C         3.954133   2.609815   2.606238 C.3        1 UNL1     -0.0567
     58 C         -3.397296   3.243318   4.07476 C.3        1 UNL1     0.0210
     59 C         2.453385   3.511179   4.897778 C.3        1 UNL1     0.0372
     60 C         -0.568164   3.064205   3.377522 C.2        1 UNL1     -0.0208
     61 C         -0.731789   4.329047   2.987463 C.2        1 UNL1     0.0882
     62 H         -1.65096   3.568755   -1.215201 H        1 UNL1     0.0365
     63 H         -3.567704   4.093339   -1.685449 H        1 UNL1     0.0576
     64 H         -4.312478   3.157844   -4.525684 H        1 UNL1     0.0615
     65 H         -5.939659   4.544784   -2.248287 H        1 UNL1     0.0622
     66 H         0.501302   2.166305   4.917053 H        1 UNL1     0.0645
     67 H         0.796398   0.234426   4.091844 H        1 UNL1     0.0362
     68 H         2.895471   0.687734   3.639764 H        1 UNL1     0.0741
     69 H         3.863483   1.139057   1.213728 H        1 UNL1     0.0359
     70 H         3.04211   2.697427   -0.163349 H        1 UNL1     0.0600
     71 H         2.02766   1.300224   -1.476142 H        1 UNL1     0.0348
     72 H         0.207672   2.900527   -1.233819 H        1 UNL1     0.0602
     73 H         -1.413746   2.435572   3.508139 H        1 UNL1     0.0628
     74 H         0.085197   5.019364   2.774779 H        1 UNL1     0.1022
     75 H         -9.040227   2.769116   -4.454774 H        1 UNL1     0.0279
     76 H         -8.79904   4.216924   -5.348631 H        1 UNL1     0.0279
     77 H         -7.705375   2.786594   -5.531248 H        1 UNL1     0.0279
     78 H         -8.843625   2.292223   -2.408591 H        1 UNL1     0.1553
     79 H         -7.155527   1.269913   -2.585878 H        1 UNL1     0.1484
     80 H         -4.814623   -0.756294   -0.382665 H        1 UNL1     0.0317
     81 H         -6.293944   -0.024773   0.222655 H        1 UNL1     0.0317
     82 H         -7.519754   -0.621863   -1.883188 H        1 UNL1     0.0428
     83 H         -6.821851   -2.01577   -1.08842 H        1 UNL1     0.0428
     84 H         -4.673221   -0.441728   -4.406389 H        1 UNL1     0.0428
     85 H         -6.16018   0.346381   -4.010206 H        1 UNL1     0.0428
     86 H         -4.059354   1.424603   -3.204712 H        1 UNL1     0.0317
     87 H         -3.610153   0.076394   -2.265083 H        1 UNL1     0.0317
     88 H         -7.426819   -2.216395   -3.774006 H        1 UNL1     0.0429
     89 H         -5.907198   -2.457248   -4.639441 H        1 UNL1     0.0429
     90 H         -7.139593   -4.002311   -2.372987 H        1 UNL1     0.0308
     91 H         -5.25813   -4.66244   -4.701286 H        1 UNL1     0.0233
     92 H         -5.702202   -5.849835   -3.448934 H        1 UNL1     0.0233
     93 H         -6.928377   -5.179244   -4.503166 H        1 UNL1     0.0233
     94 H         -4.742638   -4.758009   -1.700305 H        1 UNL1     0.0233
     95 H         -4.26488   -3.164814   -2.306773 H        1 UNL1     0.0233
     96 H         -5.440562   -3.293669   -0.978181 H        1 UNL1     0.0233
     97 H         -6.164159   6.030212   5.149009 H        1 UNL1     0.0280
     98 H         -6.073377   7.494462   4.208308 H        1 UNL1     0.0280
     99 H         -7.660529   6.720374   4.493735 H        1 UNL1     0.0280
     100 H         -9.20963   6.091579   1.655561 H        1 UNL1     0.2922
     101 H         0.445829   4.170542   -2.515724 H        1 UNL1     0.0236
     102 H         -0.940799   5.273609   -2.871485 H        1 UNL1     0.0236
     103 H         -0.440871   4.055652   -4.003806 H        1 UNL1     0.0236
     104 H         1.091854   1.057563   -2.764744 H        1 UNL1     0.2098
     105 H         1.301752   -0.716319   -0.896168 H        1 UNL1     0.0234
     106 H         1.488039   -0.148729   0.78735 H        1 UNL1     0.0234
     107 H         0.0   0.0   0.0 H        1 UNL1     0.0234
     108 H         0.866893   3.701786   0.168322 H        1 UNL1     0.2098
     109 H         -1.290726   0.344815   3.117434 H        1 UNL1     0.0234
     110 H         -0.65962   1.037174   1.589316 H        1 UNL1     0.0234
     111 H         -0.269549   -0.585396   2.040931 H        1 UNL1     0.0234
     112 H         3.670711   -0.814289   -0.63926 H        1 UNL1     0.0342
     113 H         2.160823   -1.74697   -0.341631 H        1 UNL1     0.0342
     114 H         2.270329   -0.049579   0.132545 H        1 UNL1     0.0342
     115 H         4.868055   2.914004   2.077651 H        1 UNL1     0.0234
     116 H         3.445343   3.519117   2.932353 H        1 UNL1     0.0234
     117 H         4.377837   2.117911   3.498677 H        1 UNL1     0.0234
     118 H         -2.545365   3.125806   4.767155 H        1 UNL1     0.0309
     119 H         -4.319001   3.349078   4.655687 H        1 UNL1     0.0309
     120 H         -3.459406   2.266538   3.582673 H        1 UNL1     0.0309
     121 H         1.951719   4.331633   5.410166 H        1 UNL1     0.0524
     122 H         2.460748   2.647009   5.582756 H        1 UNL1     0.0524
     123 H         3.478451   3.785425   4.665133 H        1 UNL1     0.0524
@<TRIPOS>BOND
     1     1     2    1
     2     1    42    1
     3     2     3    2
     4     3     4    1
     5     4     5    2
     6     5     7    1
     7     6    75    1
     8     6    76    1
     9     6    77    1
    10     7     9   am
    11     9    10    1
    12    10    11    2
    13    10    43    1
    14    11    14    1
    15    11    15    1
    16    12    13   ar
    17    12    27   ar
    18    12    43    1
    19    13    14    1
    20    13    30   ar
    21    14    17    2
    22    15    16    1
    23    16    17    1
    24    16    18    1
    25    16    22    1
    26    18    19    1
    27    19    20    1
    28    20    21    1
    29    21    22    1
    30    23    24    1
    31    23    88    1
    32    23    89    1
    33    24    25    1
    34    24    26    1
    35    24    90    1
    36    25    91    1
    37    25    92    1
    38    25    93    1
    39    26    94    1
    40    26    95    1
    41    26    96    1
    42    27    28   ar
    43    28    29   ar
    44    29    30   ar
    45    29    31    1
    46    30    33    1
    47    31    32    1
    48    32    33    1
    49    32    35    1
    50    34    97    1
    51    34    98    1
    52    34    99    1
    53    35    61    1
    54    36    37    1
    55    36    60    1
    56    37    38    1
    57    38    39    1
    58    39    40    1
    59    40    41    1
    60    41    42    1
    61    45   100    1
    62    47   101    1
    63    47   102    1
    64    47   103    1
    65    48   104    1
    66    49   105    1
    67    49   106    1
    68    49   107    1
    69    50   108    1
    70    51    59    1
    71    52   109    1
    72    52   110    1
    73    52   111    1
    74    53    54    1
    75    54    55    2
    76    54    56    1
    77    56   112    1
    78    56   113    1
    79    56   114    1
    80    57   115    1
    81    57   116    1
    82    57   117    1
    83    58   118    1
    84    58   119    1
    85    58   120    1
    86    59   121    1
    87    59   122    1
    88    59   123    1
    89    60    61    2
    90     1    47    1
    91     1    62    1
    92     2    63    1
    93     3    64    1
    94     4    65    1
    95     5     6    1
    96     7     8    2
    97     9    78    1
    98    15    79    1
    99    18    80    1
   100    18    81    1
   101    19    82    1
   102    19    83    1
   103    20    23    1
   104    21    84    1
   105    21    85    1
   106    22    86    1
   107    22    87    1
   108    27    45    1
   109    28    34    1
   110    32    58    1
   111    33    46    2
   112    36    51    1
   113    36    66    1
   114    37    52    1
   115    37    67    1
   116    38    53    1
   117    38    68    1
   118    42    48    1
   119    42    72    1
   120    43    44    2
   121    60    73    1
   122    61    74    1
   123    39    69    1
   124    39    57    1
   125    40    70    1
   126    40    50    1
   127    41    71    1
   128    41    49    1
