@<TRIPOS>MOLECULE
*****
 123 128 0 0 0
SMALL
GASTEIGER

@<TRIPOS>ATOM
     1 C         3.453587   3.787865   1.166389 C.3        1 UNL1     0.0009
     2 C         4.140446   5.35714   0.457419 C.2        1 UNL1     -0.0787
     3 C         5.25279   6.110173   -0.082654 C.2        1 UNL1     -0.0649
     4 C         5.229772   7.665659   -0.750703 C.2        1 UNL1     -0.0542
     5 C         5.915835   8.580167   -1.587406 C.2        1 UNL1     0.0115
     6 C         7.249781   8.836426   -2.341224 C.3        1 UNL1     -0.0348
     7 C         5.116807   9.839211   -2.181839 C.2        1 UNL1     0.2441
     8 O         5.223121   10.969849   -1.726996 O.2        1 UNL1     -0.2702
     9 N         4.490208   9.608459   -3.418883 N.am        1 UNL1     -0.2772
     10 C         3.224863   9.102248   -3.229216 C.2        1 UNL1     0.1049
     11 C         3.144003   7.800803   -3.019633 C.2        1 UNL1     0.0801
     12 C         1.109104   9.478843   -1.948952 C.ar        1 UNL1     0.0753
     13 C         1.181307   8.098811   -1.57625 C.ar        1 UNL1     0.0305
     14 C         2.130078   7.184357   -2.207644 C.2        1 UNL1     0.0924
     15 N         4.075165   6.842722   -3.166418 N.pl3        1 UNL1     -0.3170
     16 C         3.430656   5.570597   -2.975216 C.3        1 UNL1     0.1275
     17 N         2.26806   5.869727   -2.060549 N.2        1 UNL1     -0.2557
     18 C         2.822483   5.165981   -4.314661 C.3        1 UNL1     0.0016
     19 C         3.920808   5.161575   -5.365971 C.3        1 UNL1     0.0026
     20 N         4.956795   4.223573   -4.956201 N.3        1 UNL1     -0.3018
     21 C         5.559651   4.494909   -3.64956 C.3        1 UNL1     0.0026
     22 C         4.439268   4.490095   -2.608112 C.3        1 UNL1     0.0016
     23 C         5.895116   3.920307   -6.018382 C.3        1 UNL1     0.0012
     24 C         7.000001   4.986597   -6.081723 C.3        1 UNL1     -0.0339
     25 C         7.464798   5.229628   -7.527045 C.3        1 UNL1     -0.0615
     26 C         6.523282   6.270189   -5.424525 C.3        1 UNL1     -0.0615
     27 C         0.12327   10.315638   -1.431241 C.ar        1 UNL1     0.1347
     28 C         -0.865091   9.878744   -0.567345 C.ar        1 UNL1     0.0342
     29 C         -0.744887   8.528275   -0.176258 C.ar        1 UNL1     0.1435
     30 C         0.258815   7.687318   -0.658538 C.ar        1 UNL1     0.0774
     31 O         -1.692631   7.924738   0.573763 O.3        1 UNL1     -0.4436
     32 C         -1.481996   6.520416   0.363088 C.3        1 UNL1     0.3143
     33 C         -0.03504   6.397427   -0.069814 C.2        1 UNL1     0.2504
     34 C         -2.093699   10.649296   -0.171276 C.3        1 UNL1     -0.0327
     35 O         -1.591926   5.877102   1.63875 O.2        1 UNL1     -0.4528
     36 C         -2.898908   2.383905   0.933438 C.3        1 UNL1     0.0854
     37 C         -2.289101   1.2594   0.010862 C.3        1 UNL1     0.0236
     38 C         -2.036106   -0.147574   0.73761 C.3        1 UNL1     0.1131
     39 C         -1.2377   -0.193945   2.102405 C.3        1 UNL1     0.0200
     40 C         0.147337   0.713895   2.302251 C.3        1 UNL1     0.0661
     41 C         1.460952   0.771464   1.230472 C.3        1 UNL1     0.0091
     42 C         2.612816   2.142653   0.832411 C.3        1 UNL1     0.0661
     43 C         2.064174   9.968263   -2.973925 C.2        1 UNL1     0.2131
     44 O         1.874072   10.962452   -3.650821 O.2        1 UNL1     -0.2851
     45 O         0.150971   11.656287   -1.809832 O.3        1 UNL1     -0.5056
     46 O         0.71334   5.454841   0.061766 O.2        1 UNL1     -0.2836
     47 C         3.921502   3.609867   2.635863 C.3        1 UNL1     -0.0566
     48 O         3.831465   1.306833   0.956576 O.3        1 UNL1     -0.3909
     49 C         1.04629   0.148   -0.083622 C.3        1 UNL1     -0.0577
     50 O         -0.167743   2.016686   2.750785 O.3        1 UNL1     -0.3910
     51 O         -2.982709   2.07593   2.306595 O.3        1 UNL1     -0.3753
     52 C         -1.287158   1.845987   -1.036503 C.3        1 UNL1     -0.0564
     53 O         -1.795705   -1.281356   -0.215843 O.3        1 UNL1     -0.4608
     54 C         -0.914179   -2.312034   -0.019514 C.2        1 UNL1     0.3042
     55 O         0.193592   -2.256161   0.512989 O.2        1 UNL1     -0.2512
     56 C         -1.435977   -3.644824   -0.475703 C.3        1 UNL1     0.0332
     57 C         -2.310168   -0.188357   3.288978 C.3        1 UNL1     -0.0567
     58 C         -2.392619   6.114008   -0.818915 C.3        1 UNL1     0.0210
     59 C         -4.304202   1.833432   2.786927 C.3        1 UNL1     0.0372
     60 C         -2.232989   3.711019   0.831046 C.2        1 UNL1     -0.0208
     61 C         -1.854557   4.564103   1.783821 C.2        1 UNL1     0.0882
     62 H         2.465407   4.261674   1.207838 H        1 UNL1     0.0365
     63 H         3.271599   6.013844   0.536881 H        1 UNL1     0.0576
     64 H         6.225999   5.646633   -0.259015 H        1 UNL1     0.0615
     65 H         4.256016   8.0632   -0.451968 H        1 UNL1     0.0622
     66 H         -3.919999   2.529028   0.553495 H        1 UNL1     0.0645
     67 H         -3.111213   1.004681   -0.680377 H        1 UNL1     0.0362
     68 H         -3.073153   -0.409621   0.997203 H        1 UNL1     0.0741
     69 H         -0.884925   -1.203641   2.265108 H        1 UNL1     0.0359
     70 H         0.577706   0.212237   3.190047 H        1 UNL1     0.0600
     71 H         2.095681   -0.02853   1.659526 H        1 UNL1     0.0348
     72 H         2.154119   2.402435   1.797515 H        1 UNL1     0.0602
     73 H         -2.185337   4.000053   -0.189462 H        1 UNL1     0.0628
     74 H         -1.817988   4.324454   2.847056 H        1 UNL1     0.1022
     75 H         8.000241   9.306909   -1.661157 H        1 UNL1     0.0279
     76 H         7.779416   7.957757   -2.702467 H        1 UNL1     0.0279
     77 H         7.155447   9.603493   -3.12379 H        1 UNL1     0.0279
     78 H         5.020136   8.918507   -3.947296 H        1 UNL1     0.1553
     79 H         4.906452   6.953705   -3.717398 H        1 UNL1     0.1484
     80 H         2.361011   4.176257   -4.213392 H        1 UNL1     0.0317
     81 H         2.023396   5.856079   -4.605996 H        1 UNL1     0.0317
     82 H         4.337384   6.167296   -5.523769 H        1 UNL1     0.0428
     83 H         3.465074   4.872205   -6.3134 H        1 UNL1     0.0428
     84 H         6.276668   3.732129   -3.330398 H        1 UNL1     0.0428
     85 H         6.144261   5.425245   -3.654358 H        1 UNL1     0.0428
     86 H         4.929777   4.558203   -1.654828 H        1 UNL1     0.0317
     87 H         3.960544   3.503702   -2.577306 H        1 UNL1     0.0317
     88 H         6.35837   2.949668   -5.798043 H        1 UNL1     0.0429
     89 H         5.384719   3.821042   -6.985033 H        1 UNL1     0.0429
     90 H         7.859499   4.648779   -5.49066 H        1 UNL1     0.0308
     91 H         6.613494   5.333768   -8.20641 H        1 UNL1     0.0233
     92 H         8.08409   6.127621   -7.587833 H        1 UNL1     0.0233
     93 H         8.080055   4.407252   -7.911742 H        1 UNL1     0.0233
     94 H         6.477064   7.077977   -6.162887 H        1 UNL1     0.0233
     95 H         5.518941   6.129723   -5.015219 H        1 UNL1     0.0233
     96 H         7.193641   6.577946   -4.617139 H        1 UNL1     0.0233
     97 H         -1.857249   11.488541   0.476018 H        1 UNL1     0.0280
     98 H         -2.61222   11.076283   -1.03965 H        1 UNL1     0.0280
     99 H         -2.789421   9.983973   0.365764 H        1 UNL1     0.0280
     100 H         -0.305841   11.846597   -2.610286 H        1 UNL1     0.2922
     101 H         3.263246   2.90912   3.149 H        1 UNL1     0.0236
     102 H         4.013816   4.552928   3.173541 H        1 UNL1     0.0236
     103 H         4.922407   3.151192   2.699098 H        1 UNL1     0.0236
     104 H         4.598315   1.909952   1.012773 H        1 UNL1     0.2098
     105 H         1.225222   0.774188   -0.954072 H        1 UNL1     0.0234
     106 H         1.434993   -0.855881   -0.254095 H        1 UNL1     0.0234
     107 H         0.0   -0.0   0.0 H        1 UNL1     0.0234
     108 H         -0.199034   1.987932   3.726471 H        1 UNL1     0.2098
     109 H         -1.766532   2.568972   -1.711192 H        1 UNL1     0.0234
     110 H         -0.403572   2.302843   -0.577915 H        1 UNL1     0.0234
     111 H         -0.874906   1.06189   -1.685491 H        1 UNL1     0.0234
     112 H         -1.931051   -3.538452   -1.44572 H        1 UNL1     0.0342
     113 H         -0.651621   -4.39904   -0.517989 H        1 UNL1     0.0342
     114 H         -2.186993   -3.985939   0.250094 H        1 UNL1     0.0342
     115 H         -1.849022   -0.426454   4.257401 H        1 UNL1     0.0234
     116 H         -2.841822   0.758495   3.402397 H        1 UNL1     0.0234
     117 H         -3.061125   -0.992897   3.207001 H        1 UNL1     0.0234
     118 H         -3.359592   6.646541   -0.799485 H        1 UNL1     0.0309
     119 H         -1.921177   6.263145   -1.795492 H        1 UNL1     0.0309
     120 H         -2.684602   5.058819   -0.781126 H        1 UNL1     0.0309
     121 H         -4.676554   2.765025   3.212186 H        1 UNL1     0.0524
     122 H         -4.994946   1.537452   1.979892 H        1 UNL1     0.0524
     123 H         -4.29191   1.054368   3.543897 H        1 UNL1     0.0524
@<TRIPOS>BOND
     1     1     2    1
     2     1    42    1
     3     2     3    2
     4     3     4    1
     5     4     5    2
     6     5     7    1
     7     6    75    1
     8     6    76    1
     9     6    77    1
    10     7     9   am
    11     9    10    1
    12    10    11    2
    13    10    43    1
    14    11    14    1
    15    11    15    1
    16    12    13   ar
    17    12    27   ar
    18    12    43    1
    19    13    14    1
    20    13    30   ar
    21    14    17    2
    22    15    16    1
    23    16    17    1
    24    16    18    1
    25    16    22    1
    26    18    19    1
    27    19    20    1
    28    20    21    1
    29    21    22    1
    30    23    24    1
    31    23    88    1
    32    23    89    1
    33    24    25    1
    34    24    26    1
    35    24    90    1
    36    25    91    1
    37    25    92    1
    38    25    93    1
    39    26    94    1
    40    26    95    1
    41    26    96    1
    42    27    28   ar
    43    28    29   ar
    44    29    30   ar
    45    29    31    1
    46    30    33    1
    47    31    32    1
    48    32    33    1
    49    32    35    1
    50    34    97    1
    51    34    98    1
    52    34    99    1
    53    35    61    1
    54    36    37    1
    55    36    60    1
    56    37    38    1
    57    38    39    1
    58    39    40    1
    59    40    41    1
    60    41    42    1
    61    45   100    1
    62    47   101    1
    63    47   102    1
    64    47   103    1
    65    48   104    1
    66    49   105    1
    67    49   106    1
    68    49   107    1
    69    50   108    1
    70    51    59    1
    71    52   109    1
    72    52   110    1
    73    52   111    1
    74    53    54    1
    75    54    55    2
    76    54    56    1
    77    56   112    1
    78    56   113    1
    79    56   114    1
    80    57   115    1
    81    57   116    1
    82    57   117    1
    83    58   118    1
    84    58   119    1
    85    58   120    1
    86    59   121    1
    87    59   122    1
    88    59   123    1
    89    60    61    2
    90     1    47    1
    91     1    62    1
    92     2    63    1
    93     3    64    1
    94     4    65    1
    95     5     6    1
    96     7     8    2
    97     9    78    1
    98    15    79    1
    99    18    80    1
   100    18    81    1
   101    19    82    1
   102    19    83    1
   103    20    23    1
   104    21    84    1
   105    21    85    1
   106    22    86    1
   107    22    87    1
   108    27    45    1
   109    28    34    1
   110    32    58    1
   111    33    46    2
   112    36    51    1
   113    36    66    1
   114    37    52    1
   115    37    67    1
   116    38    53    1
   117    38    68    1
   118    42    48    1
   119    42    72    1
   120    43    44    2
   121    60    73    1
   122    61    74    1
   123    39    69    1
   124    39    57    1
   125    40    70    1
   126    40    50    1
   127    41    71    1
   128    41    49    1
