@<TRIPOS>MOLECULE
*****
 123 128 0 0 0
SMALL
GASTEIGER

@<TRIPOS>ATOM
     1 C         4.812213   0.252569   0.617847 C.3        1 UNL1     0.0009
     2 C         6.107119   1.499707   0.165187 C.2        1 UNL1     -0.0787
     3 C         7.291189   1.865864   -0.583114 C.2        1 UNL1     -0.0649
     4 C         8.03587   3.383522   -0.675413 C.2        1 UNL1     -0.0542
     5 C         8.916465   4.200986   -1.426002 C.2        1 UNL1     0.0115
     6 C         9.932311   4.205288   -2.601315 C.3        1 UNL1     -0.0348
     7 C         8.900877   5.787644   -1.182564 C.2        1 UNL1     0.2441
     8 O         9.75092   6.367761   -0.521188 O.2        1 UNL1     -0.2702
     9 N         7.998157   6.498881   -1.992126 N.am        1 UNL1     -0.2772
     10 C         6.760844   6.559303   -1.393189 C.2        1 UNL1     0.1049
     11 C         5.980822   5.506908   -1.561275 C.2        1 UNL1     0.0801
     12 C         5.628921   7.100837   0.770795 C.ar        1 UNL1     0.0753
     13 C         4.958591   5.842508   0.644798 C.ar        1 UNL1     0.0305
     14 C         5.015096   5.065881   -0.591612 C.2        1 UNL1     0.0924
     15 N         6.107868   4.462249   -2.397381 N.pl3        1 UNL1     -0.3170
     16 C         4.90309   3.680494   -2.310056 C.3        1 UNL1     0.1275
     17 N         4.383148   3.941903   -0.917558 N.2        1 UNL1     -0.2557
     18 C         3.889309   4.304008   -3.264613 C.3        1 UNL1     0.0016
     19 C         4.501532   4.360632   -4.65514 C.3        1 UNL1     0.0026
     20 N         4.847961   3.008   -5.069148 N.3        1 UNL1     -0.3018
     21 C         5.771862   2.30262   -4.178521 C.3        1 UNL1     0.0026
     22 C         5.134852   2.253343   -2.78867 C.3        1 UNL1     0.0016
     23 C         5.157829   2.912544   -6.481774 C.3        1 UNL1     0.0012
     24 C         3.868029   2.79983   -7.309704 C.3        1 UNL1     -0.0339
     25 C         4.096474   3.230142   -8.768026 C.3        1 UNL1     -0.0615
     26 C         3.315631   1.387663   -7.223562 C.3        1 UNL1     -0.0615
     27 C         5.472224   7.891524   1.906743 C.ar        1 UNL1     0.1347
     28 C         4.643625   7.549113   2.960417 C.ar        1 UNL1     0.0342
     29 C         4.032119   6.283502   2.836102 C.ar        1 UNL1     0.1435
     30 C         4.20828   5.464352   1.720226 C.ar        1 UNL1     0.0774
     31 O         3.111337   5.855137   3.726984 O.3        1 UNL1     -0.4436
     32 C         2.402019   4.811747   3.042092 C.3        1 UNL1     0.3143
     33 C         3.355548   4.32131   1.97136 C.2        1 UNL1     0.2504
     34 C         4.231855   8.453801   4.088284 C.3        1 UNL1     -0.0327
     35 O         2.227795   3.734506   3.970775 O.2        1 UNL1     -0.4528
     36 C         -0.999877   2.007254   2.967368 C.3        1 UNL1     0.0854
     37 C         -1.396095   1.361853   1.583897 C.3        1 UNL1     0.0236
     38 C         -1.861569   -0.170799   1.661714 C.3        1 UNL1     0.1131
     39 C         -0.959274   -1.227998   2.417004 C.3        1 UNL1     0.0200
     40 C         0.695302   -1.231243   2.205334 C.3        1 UNL1     0.0661
     41 C         1.50653   -1.209028   0.715695 C.3        1 UNL1     0.0091
     42 C         3.116715   -0.464405   0.248528 C.3        1 UNL1     0.0661
     43 C         6.426011   7.577644   -0.3866 C.2        1 UNL1     0.2131
     44 O         6.709087   8.747231   -0.572802 O.2        1 UNL1     -0.2851
     45 O         6.19568   9.080671   1.969826 O.3        1 UNL1     -0.5056
     46 O         3.412823   3.226598   1.457377 O.2        1 UNL1     -0.2836
     47 C         5.404182   -0.816008   1.575812 C.3        1 UNL1     -0.0566
     48 O         3.600326   -1.674533   -0.459162 O.3        1 UNL1     -0.3909
     49 C         0.520211   -0.845468   -0.371731 C.3        1 UNL1     -0.0577
     50 O         1.317752   -0.339174   3.107827 O.3        1 UNL1     -0.3910
     51 O         -0.934663   1.123093   4.063469 O.3        1 UNL1     -0.3753
     52 C         -0.510576   1.903271   0.414422 C.3        1 UNL1     -0.0564
     53 O         -2.557174   -0.650896   0.421566 O.3        1 UNL1     -0.4608
     54 C         -3.673782   -0.083163   -0.134128 C.2        1 UNL1     0.3042
     55 O         -4.046106   1.085256   -0.034069 O.2        1 UNL1     -0.2512
     56 C         -4.462808   -1.027125   -0.996153 C.3        1 UNL1     0.0332
     57 C         -1.520057   -1.362423   3.908858 C.3        1 UNL1     -0.0567
     58 C         1.187945   5.483509   2.359237 C.3        1 UNL1     0.0210
     59 C         -0.408361   -0.168272   3.761399 C.3        1 UNL1     0.0372
     60 C         0.273972   2.776943   2.960371 C.2        1 UNL1     -0.0208
     61 C         1.285168   2.782868   3.829964 C.2        1 UNL1     0.0882
     62 H         4.332444   1.008833   1.250775 H        1 UNL1     0.0365
     63 H         5.836128   2.32425   0.827879 H        1 UNL1     0.0576
     64 H         7.734781   1.19124   -1.318788 H        1 UNL1     0.0615
     65 H         7.580813   3.947329   0.143445 H        1 UNL1     0.0622
     66 H         -1.793867   2.740483   3.167371 H        1 UNL1     0.0645
     67 H         -2.341037   1.864791   1.314272 H        1 UNL1     0.0362
     68 H         -2.76223   -0.058119   2.284318 H        1 UNL1     0.0741
     69 H         -1.241666   -2.220947   2.093407 H        1 UNL1     0.0359
     70 H         0.93607   -2.236857   2.600088 H        1 UNL1     0.0600
     71 H         1.626745   -2.296829   0.54483 H        1 UNL1     0.0348
     72 H         3.131841   -0.556799   1.344224 H        1 UNL1     0.0602
     73 H         0.249489   3.485626   2.17017 H        1 UNL1     0.0628
     74 H         1.413775   2.054292   4.631135 H        1 UNL1     0.1022
     75 H         9.895612   3.236055   -3.154735 H        1 UNL1     0.0279
     76 H         9.757573   4.932659   -3.390915 H        1 UNL1     0.0279
     77 H         10.977702   4.220493   -2.259809 H        1 UNL1     0.0279
     78 H         7.884586   6.017903   -2.881979 H        1 UNL1     0.1553
     79 H         6.693887   4.468839   -3.211919 H        1 UNL1     0.1484
     80 H         2.972258   3.702601   -3.254937 H        1 UNL1     0.0317
     81 H         3.608072   5.309746   -2.93439 H        1 UNL1     0.0317
     82 H         5.380296   5.021467   -4.686481 H        1 UNL1     0.0428
     83 H         3.76274   4.810118   -5.319368 H        1 UNL1     0.0428
     84 H         5.952951   1.262967   -4.468586 H        1 UNL1     0.0428
     85 H         6.771534   2.758647   -4.182255 H        1 UNL1     0.0428
     86 H         5.771971   1.619241   -2.200467 H        1 UNL1     0.0317
     87 H         4.190385   1.697049   -2.828864 H        1 UNL1     0.0317
     88 H         5.684668   3.828875   -6.778542 H        1 UNL1     0.0429
     89 H         5.834031   2.072366   -6.685801 H        1 UNL1     0.0429
     90 H         3.101231   3.448728   -6.870198 H        1 UNL1     0.0308
     91 H         4.934065   2.687383   -9.216307 H        1 UNL1     0.0233
     92 H         3.198038   3.060574   -9.366079 H        1 UNL1     0.0233
     93 H         4.325853   4.298925   -8.857038 H        1 UNL1     0.0233
     94 H         2.336966   1.334431   -7.712661 H        1 UNL1     0.0233
     95 H         3.986589   0.692129   -7.73543 H        1 UNL1     0.0233
     96 H         3.200529   1.066896   -6.184414 H        1 UNL1     0.0233
     97 H         4.865049   9.333326   4.157073 H        1 UNL1     0.0280
     98 H         3.20781   8.829664   3.964536 H        1 UNL1     0.0280
     99 H         4.296075   7.906258   5.042836 H        1 UNL1     0.0280
     100 H         5.770324   9.773025   2.444527 H        1 UNL1     0.2922
     101 H         5.923161   -0.324927   2.398707 H        1 UNL1     0.0236
     102 H         6.037677   -1.542739   1.068338 H        1 UNL1     0.0236
     103 H         4.617998   -1.418574   2.060603 H        1 UNL1     0.0236
     104 H         2.824505   -2.108933   -0.864586 H        1 UNL1     0.2098
     105 H         0.977409   -0.565487   -1.317454 H        1 UNL1     0.0234
     106 H         -0.267822   -1.580282   -0.535988 H        1 UNL1     0.0234
     107 H         -0.0   0.0   0.0 H        1 UNL1     0.0234
     108 H         1.795524   -0.879252   3.766475 H        1 UNL1     0.2098
     109 H         0.5577   1.913926   0.672071 H        1 UNL1     0.0234
     110 H         -0.655774   1.357078   -0.52384 H        1 UNL1     0.0234
     111 H         -0.765485   2.940843   0.160627 H        1 UNL1     0.0234
     112 H         -5.525945   -0.95892   -0.746286 H        1 UNL1     0.0342
     113 H         -4.298556   -0.846967   -2.057476 H        1 UNL1     0.0342
     114 H         -4.130368   -2.051145   -0.776993 H        1 UNL1     0.0342
     115 H         -2.59979   -1.565348   3.922556 H        1 UNL1     0.0234
     116 H         -1.032056   -2.141359   4.498063 H        1 UNL1     0.0234
     117 H         -1.472834   -0.421145   4.483059 H        1 UNL1     0.0234
     118 H         0.230548   5.158716   2.802977 H        1 UNL1     0.0309
     119 H         1.237108   6.576922   2.374506 H        1 UNL1     0.0309
     120 H         1.087535   5.199164   1.306065 H        1 UNL1     0.0309
     121 H         -1.243726   -0.805353   3.472175 H        1 UNL1     0.0524
     122 H         0.29918   -0.144395   2.91591 H        1 UNL1     0.0524
     123 H         0.094939   -0.581784   4.630762 H        1 UNL1     0.0524
@<TRIPOS>BOND
     1     1     2    1
     2     1    42    1
     3     2     3    2
     4     3     4    1
     5     4     5    2
     6     5     7    1
     7     6    75    1
     8     6    76    1
     9     6    77    1
    10     7     9   am
    11     9    10    1
    12    10    11    2
    13    10    43    1
    14    11    14    1
    15    11    15    1
    16    12    13   ar
    17    12    27   ar
    18    12    43    1
    19    13    14    1
    20    13    30   ar
    21    14    17    2
    22    15    16    1
    23    16    17    1
    24    16    18    1
    25    16    22    1
    26    18    19    1
    27    19    20    1
    28    20    21    1
    29    21    22    1
    30    23    24    1
    31    23    88    1
    32    23    89    1
    33    24    25    1
    34    24    26    1
    35    24    90    1
    36    25    91    1
    37    25    92    1
    38    25    93    1
    39    26    94    1
    40    26    95    1
    41    26    96    1
    42    27    28   ar
    43    28    29   ar
    44    29    30   ar
    45    29    31    1
    46    30    33    1
    47    31    32    1
    48    32    33    1
    49    32    35    1
    50    34    97    1
    51    34    98    1
    52    34    99    1
    53    35    61    1
    54    36    37    1
    55    36    60    1
    56    37    38    1
    57    38    39    1
    58    39    40    1
    59    40    41    1
    60    41    42    1
    61    45   100    1
    62    47   101    1
    63    47   102    1
    64    47   103    1
    65    48   104    1
    66    49   105    1
    67    49   106    1
    68    49   107    1
    69    50   108    1
    70    51    59    1
    71    52   109    1
    72    52   110    1
    73    52   111    1
    74    53    54    1
    75    54    55    2
    76    54    56    1
    77    56   112    1
    78    56   113    1
    79    56   114    1
    80    57   115    1
    81    57   116    1
    82    57   117    1
    83    58   118    1
    84    58   119    1
    85    58   120    1
    86    59   121    1
    87    59   122    1
    88    59   123    1
    89    60    61    2
    90     1    47    1
    91     1    62    1
    92     2    63    1
    93     3    64    1
    94     4    65    1
    95     5     6    1
    96     7     8    2
    97     9    78    1
    98    15    79    1
    99    18    80    1
   100    18    81    1
   101    19    82    1
   102    19    83    1
   103    20    23    1
   104    21    84    1
   105    21    85    1
   106    22    86    1
   107    22    87    1
   108    27    45    1
   109    28    34    1
   110    32    58    1
   111    33    46    2
   112    36    51    1
   113    36    66    1
   114    37    52    1
   115    37    67    1
   116    38    53    1
   117    38    68    1
   118    42    48    1
   119    42    72    1
   120    43    44    2
   121    60    73    1
   122    61    74    1
   123    39    69    1
   124    39    57    1
   125    40    70    1
   126    40    50    1
   127    41    71    1
   128    41    49    1
