@<TRIPOS>MOLECULE
*****
 123 128 0 0 0
SMALL
GASTEIGER

@<TRIPOS>ATOM
     1 C         5.167875   1.747673   0.487831 C.3        1 UNL1     0.0009
     2 C         6.604126   2.553582   -0.36348 C.2        1 UNL1     -0.0787
     3 C         7.885512   2.455206   -1.030127 C.2        1 UNL1     -0.0649
     4 C         8.762679   3.690235   -1.786195 C.2        1 UNL1     -0.0542
     5 C         9.7821   3.982776   -2.725492 C.2        1 UNL1     0.0115
     6 C         10.909556   3.357198   -3.591989 C.3        1 UNL1     -0.0348
     7 C         9.877315   5.466082   -3.331898 C.2        1 UNL1     0.2441
     8 O         10.701635   6.287517   -2.954716 O.2        1 UNL1     -0.2702
     9 N         9.126307   5.673335   -4.50202 N.am        1 UNL1     -0.2772
     10 C         7.843894   6.060244   -4.187313 C.2        1 UNL1     0.1049
     11 C         6.998115   5.088973   -3.894889 C.2        1 UNL1     0.0801
     12 C         6.546832   7.667005   -2.775475 C.ar        1 UNL1     0.0753
     13 C         5.78786   6.539196   -2.327574 C.ar        1 UNL1     0.0305
     14 C         5.904065   5.233543   -2.973189 C.2        1 UNL1     0.0924
     15 N         7.120349   3.759987   -4.054213 N.pl3        1 UNL1     -0.3170
     16 C         5.850589   3.161044   -3.739205 C.3        1 UNL1     0.1275
     17 N         5.21508   4.1163   -2.758726 N.2        1 UNL1     -0.2557
     18 C         4.996858   3.220432   -5.002264 C.3        1 UNL1     0.0016
     19 C         5.750798   2.53631   -6.131486 C.3        1 UNL1     0.0026
     20 N         6.020929   1.15811   -5.745972 N.3        1 UNL1     -0.3018
     21 C         6.785131   0.99742   -4.507205 C.3        1 UNL1     0.0026
     22 C         6.007322   1.687975   -3.385581 C.3        1 UNL1     0.0016
     23 C         6.46448   0.338604   -6.85607 C.3        1 UNL1     0.0012
     24 C         5.308288   0.089477   -7.83735 C.3        1 UNL1     -0.0339
     25 C         5.343368   1.081748   -9.011328 C.3        1 UNL1     -0.0615
     26 C         5.33675   -1.349973   -8.321038 C.3        1 UNL1     -0.0615
     27 C         6.342816   8.934681   -2.235574 C.ar        1 UNL1     0.1347
     28 C         5.384495   9.20432   -1.274863 C.ar        1 UNL1     0.0342
     29 C         4.683026   8.069964   -0.814058 C.ar        1 UNL1     0.1435
     30 C         4.901846   6.787947   -1.319796 C.ar        1 UNL1     0.0774
     31 O         3.642665   8.183652   0.040185 O.3        1 UNL1     -0.4436
     32 C         2.920632   6.950996   -0.101596 C.3        1 UNL1     0.3143
     33 C         3.933345   5.95774   -0.634575 C.2        1 UNL1     0.2504
     34 C         4.938252   10.570469   -0.833721 C.3        1 UNL1     -0.0327
     35 O         2.560844   6.514229   1.214853 O.2        1 UNL1     -0.4528
     36 C         -0.682883   4.582754   0.820229 C.3        1 UNL1     0.0854
     37 C         -0.989091   3.322328   -0.077037 C.3        1 UNL1     0.0236
     38 C         -1.589343   2.061325   0.711197 C.3        1 UNL1     0.1131
     39 C         -0.862763   1.530105   2.012026 C.3        1 UNL1     0.0200
     40 C         0.798428   1.384212   2.05199 C.3        1 UNL1     0.0661
     41 C         1.756801   0.615306   0.882411 C.3        1 UNL1     0.0091
     42 C         3.464058   0.977568   0.31722 C.3        1 UNL1     0.0661
     43 C         7.496028   7.459222   -3.897131 C.2        1 UNL1     0.2131
     44 O         7.895582   8.357291   -4.615857 O.2        1 UNL1     -0.2851
     45 O         7.154968   9.969667   -2.69454 O.3        1 UNL1     -0.5056
     46 O         3.949179   4.754189   -0.503931 O.2        1 UNL1     -0.2836
     47 C         5.565181   1.317969   1.925706 C.3        1 UNL1     -0.0566
     48 O         3.912388   -0.433638   0.398543 O.3        1 UNL1     -0.3909
     49 C         0.921675   0.383012   -0.356983 C.3        1 UNL1     -0.0577
     50 O         1.399161   2.601911   2.444484 O.3        1 UNL1     -0.3910
     51 O         -0.806011   4.392968   2.211722 O.3        1 UNL1     -0.3753
     52 C         0.054502   3.161754   -1.230328 C.3        1 UNL1     -0.0564
     53 O         -2.192809   1.022555   -0.188309 O.3        1 UNL1     -0.4608
     54 C         -2.427246   -0.284181   0.15141 C.2        1 UNL1     0.3042
     55 O         -1.857651   -1.283285   -0.285843 O.2        1 UNL1     -0.2512
     56 C         -3.468032   -0.449827   1.221943 C.3        1 UNL1     0.0332
     57 C         -1.582743   2.199126   3.273856 C.3        1 UNL1     -0.0567
     58 C         1.844707   7.196416   -1.184964 C.3        1 UNL1     0.0210
     59 C         -1.118429   5.571967   2.952141 C.3        1 UNL1     0.0372
     60 C         0.646077   5.211583   0.588715 C.2        1 UNL1     -0.0208
     61 C         1.55973   5.646542   1.457503 C.2        1 UNL1     0.0882
     62 H         4.692224   2.731936   0.575535 H        1 UNL1     0.0365
     63 H         6.338175   3.607427   -0.257884 H        1 UNL1     0.0576
     64 H         8.342804   1.488282   -1.251596 H        1 UNL1     0.0615
     65 H         8.276039   4.605701   -1.438939 H        1 UNL1     0.0622
     66 H         -1.427601   5.329467   0.510614 H        1 UNL1     0.0645
     67 H         -1.855016   3.631932   -0.687675 H        1 UNL1     0.0362
     68 H         -2.536067   2.498367   1.063661 H        1 UNL1     0.0741
     69 H         -1.194357   0.519058   2.207575 H        1 UNL1     0.0359
     70 H         0.910703   0.723777   2.933057 H        1 UNL1     0.0600
     71 H         1.800478   -0.405908   1.309227 H        1 UNL1     0.0348
     72 H         3.358989   1.465706   1.297015 H        1 UNL1     0.0602
     73 H         0.763262   5.408902   -0.447905 H        1 UNL1     0.0628
     74 H         1.542917   5.435785   2.527333 H        1 UNL1     0.1022
     75 H         10.935287   2.24851   -3.460898 H        1 UNL1     0.0279
     76 H         10.808602   3.463372   -4.669766 H        1 UNL1     0.0279
     77 H         11.915732   3.639468   -3.249009 H        1 UNL1     0.0279
     78 H         9.063741   4.803446   -5.02686 H        1 UNL1     0.1553
     79 H         7.78508   3.331912   -4.672126 H        1 UNL1     0.1484
     80 H         4.035614   2.729683   -4.807474 H        1 UNL1     0.0317
     81 H         4.770271   4.257257   -5.27301 H        1 UNL1     0.0317
     82 H         6.681392   3.067438   -6.380101 H        1 UNL1     0.0428
     83 H         5.125009   2.591665   -7.022762 H        1 UNL1     0.0428
     84 H         6.905455   -0.045585   -4.198216 H        1 UNL1     0.0428
     85 H         7.815225   1.365244   -4.61174 H        1 UNL1     0.0428
     86 H         6.524353   1.437423   -2.477896 H        1 UNL1     0.0317
     87 H         5.027868   1.210534   -3.25982 H        1 UNL1     0.0317
     88 H         7.260274   0.880279   -7.383891 H        1 UNL1     0.0429
     89 H         6.897131   -0.60729   -6.505541 H        1 UNL1     0.0429
     90 H         4.355665   0.208706   -7.30772 H        1 UNL1     0.0308
     91 H         6.296138   1.030816   -9.546807 H        1 UNL1     0.0233
     92 H         4.527926   0.882006   -9.710446 H        1 UNL1     0.0233
     93 H         5.217696   2.120856   -8.683766 H        1 UNL1     0.0233
     94 H         4.641625   -1.481222   -9.157347 H        1 UNL1     0.0233
     95 H         6.339946   -1.606055   -8.673147 H        1 UNL1     0.0233
     96 H         5.054252   -2.044203   -7.524667 H        1 UNL1     0.0233
     97 H         4.139143   10.52093   -0.100099 H        1 UNL1     0.0280
     98 H         5.749047   11.136818   -0.357155 H        1 UNL1     0.0280
     99 H         4.572867   11.13853   -1.704867 H        1 UNL1     0.0280
     100 H         6.687874   10.720927   -3.015561 H        1 UNL1     0.2922
     101 H         4.702645   0.884468   2.431438 H        1 UNL1     0.0236
     102 H         6.016552   2.123171   2.504409 H        1 UNL1     0.0236
     103 H         6.321261   0.515141   1.923988 H        1 UNL1     0.0236
     104 H         4.332216   -0.55988   1.271915 H        1 UNL1     0.2098
     105 H         0.708798   1.281935   -0.930073 H        1 UNL1     0.0234
     106 H         1.29042   -0.405033   -1.013443 H        1 UNL1     0.0234
     107 H         0.0   -0.0   0.0 H        1 UNL1     0.0234
     108 H         1.215261   3.255595   1.742596 H        1 UNL1     0.2098
     109 H         1.081041   3.060425   -0.851301 H        1 UNL1     0.0234
     110 H         -0.17194   2.327143   -1.902557 H        1 UNL1     0.0234
     111 H         0.066607   4.03939   -1.890294 H        1 UNL1     0.0234
     112 H         -3.591417   -1.510684   1.460071 H        1 UNL1     0.0342
     113 H         -3.231874   0.12625   2.115368 H        1 UNL1     0.0342
     114 H         -4.425224   -0.079068   0.830172 H        1 UNL1     0.0342
     115 H         -2.652391   1.951069   3.312721 H        1 UNL1     0.0234
     116 H         -1.145643   1.919198   4.234393 H        1 UNL1     0.0234
     117 H         -1.621149   3.300994   3.225344 H        1 UNL1     0.0234
     118 H         0.943412   7.682066   -0.771663 H        1 UNL1     0.0309
     119 H         2.213154   7.785689   -2.030662 H        1 UNL1     0.0309
     120 H         1.456738   6.264607   -1.61078 H        1 UNL1     0.0309
     121 H         -0.28586   6.265128   2.835032 H        1 UNL1     0.0524
     122 H         -2.024587   6.074841   2.575268 H        1 UNL1     0.0524
     123 H         -1.26006   5.330165   4.001697 H        1 UNL1     0.0524
@<TRIPOS>BOND
     1     1     2    1
     2     1    42    1
     3     2     3    2
     4     3     4    1
     5     4     5    2
     6     5     7    1
     7     6    75    1
     8     6    76    1
     9     6    77    1
    10     7     9   am
    11     9    10    1
    12    10    11    2
    13    10    43    1
    14    11    14    1
    15    11    15    1
    16    12    13   ar
    17    12    27   ar
    18    12    43    1
    19    13    14    1
    20    13    30   ar
    21    14    17    2
    22    15    16    1
    23    16    17    1
    24    16    18    1
    25    16    22    1
    26    18    19    1
    27    19    20    1
    28    20    21    1
    29    21    22    1
    30    23    24    1
    31    23    88    1
    32    23    89    1
    33    24    25    1
    34    24    26    1
    35    24    90    1
    36    25    91    1
    37    25    92    1
    38    25    93    1
    39    26    94    1
    40    26    95    1
    41    26    96    1
    42    27    28   ar
    43    28    29   ar
    44    29    30   ar
    45    29    31    1
    46    30    33    1
    47    31    32    1
    48    32    33    1
    49    32    35    1
    50    34    97    1
    51    34    98    1
    52    34    99    1
    53    35    61    1
    54    36    37    1
    55    36    60    1
    56    37    38    1
    57    38    39    1
    58    39    40    1
    59    40    41    1
    60    41    42    1
    61    45   100    1
    62    47   101    1
    63    47   102    1
    64    47   103    1
    65    48   104    1
    66    49   105    1
    67    49   106    1
    68    49   107    1
    69    50   108    1
    70    51    59    1
    71    52   109    1
    72    52   110    1
    73    52   111    1
    74    53    54    1
    75    54    55    2
    76    54    56    1
    77    56   112    1
    78    56   113    1
    79    56   114    1
    80    57   115    1
    81    57   116    1
    82    57   117    1
    83    58   118    1
    84    58   119    1
    85    58   120    1
    86    59   121    1
    87    59   122    1
    88    59   123    1
    89    60    61    2
    90     1    47    1
    91     1    62    1
    92     2    63    1
    93     3    64    1
    94     4    65    1
    95     5     6    1
    96     7     8    2
    97     9    78    1
    98    15    79    1
    99    18    80    1
   100    18    81    1
   101    19    82    1
   102    19    83    1
   103    20    23    1
   104    21    84    1
   105    21    85    1
   106    22    86    1
   107    22    87    1
   108    27    45    1
   109    28    34    1
   110    32    58    1
   111    33    46    2
   112    36    51    1
   113    36    66    1
   114    37    52    1
   115    37    67    1
   116    38    53    1
   117    38    68    1
   118    42    48    1
   119    42    72    1
   120    43    44    2
   121    60    73    1
   122    61    74    1
   123    39    69    1
   124    39    57    1
   125    40    70    1
   126    40    50    1
   127    41    71    1
   128    41    49    1
