@<TRIPOS>MOLECULE
*****
 123 128 0 0 0
SMALL
GASTEIGER

@<TRIPOS>ATOM
     1 C         -1.592311   3.708917   -0.949341 C.3        1 UNL1     0.0009
     2 C         -3.375512   4.213322   -0.896367 C.2        1 UNL1     -0.0787
     3 C         -4.631215   4.461726   -1.572793 C.2        1 UNL1     -0.0649
     4 C         -6.128627   4.842253   -0.880469 C.2        1 UNL1     -0.0542
     5 C         -7.53037   4.863611   -1.08477 C.2        1 UNL1     0.0115
     6 C         -8.647332   4.700205   -2.152017 C.3        1 UNL1     -0.0348
     7 C         -8.499829   4.966906   0.190561 C.2        1 UNL1     0.2441
     8 O         -9.050909   6.006603   0.525027 O.2        1 UNL1     -0.2702
     9 N         -8.880306   3.731408   0.742768 N.am        1 UNL1     -0.2772
     10 C         -7.960384   3.320614   1.679952 C.2        1 UNL1     0.1049
     11 C         -6.887923   2.707412   1.213012 C.2        1 UNL1     0.0801
     12 C         -6.686707   4.10386   3.685346 C.ar        1 UNL1     0.0753
     13 C         -5.512366   3.60453   3.037117 C.ar        1 UNL1     0.0305
     14 C         -5.595028   2.772582   1.838752 C.2        1 UNL1     0.0924
     15 N         -6.634408   2.226315   -0.016135 N.pl3        1 UNL1     -0.3170
     16 C         -5.39474   1.498397   0.043974 C.3        1 UNL1     0.1275
     17 N         -4.629221   2.148269   1.170637 N.2        1 UNL1     -0.2557
     18 C         -5.722809   0.084813   0.514987 C.3        1 UNL1     0.0016
     19 C         -6.757097   -0.513335   -0.425256 C.3        1 UNL1     0.0026
     20 N         -6.210993   -0.524416   -1.775322 N.3        1 UNL1     -0.3018
     21 C         -5.807659   0.784432   -2.293593 C.3        1 UNL1     0.0026
     22 C         -4.765189   1.364862   -1.336382 C.3        1 UNL1     0.0016
     23 C         -6.985469   -1.339112   -2.690254 C.3        1 UNL1     0.0012
     24 C         -6.821816   -2.829852   -2.354594 C.3        1 UNL1     -0.0339
     25 C         -8.130362   -3.432213   -1.817076 C.3        1 UNL1     -0.0615
     26 C         -6.317155   -3.585364   -3.571681 C.3        1 UNL1     -0.0615
     27 C         -6.606595   4.793546   4.892837 C.ar        1 UNL1     0.1347
     28 C         -5.416834   5.009696   5.564998 C.ar        1 UNL1     0.0342
     29 C         -4.268871   4.552065   4.883882 C.ar        1 UNL1     0.1435
     30 C         -4.330489   3.891452   3.656277 C.ar        1 UNL1     0.0774
     31 O         -3.046703   4.589974   5.45823 O.3        1 UNL1     -0.4436
     32 C         -2.264509   3.647817   4.708973 C.3        1 UNL1     0.3143
     33 C         -2.956724   3.53794   3.365479 C.2        1 UNL1     0.2504
     34 C         -5.279523   5.51469   6.974333 C.3        1 UNL1     -0.0327
     35 O         -0.985781   4.24924   4.47149 O.2        1 UNL1     -0.4528
     36 C         1.494881   1.382029   4.288444 C.3        1 UNL1     0.0854
     37 C         1.499741   0.128339   3.331491 C.3        1 UNL1     0.0236
     38 C         2.847795   -0.071434   2.48616 C.3        1 UNL1     0.1131
     39 C         3.441185   1.13806   1.657135 C.3        1 UNL1     0.0200
     40 C         2.437339   2.113997   0.750339 C.3        1 UNL1     0.0661
     41 C         1.270792   1.58088   -0.359869 C.3        1 UNL1     0.0091
     42 C         -0.345509   2.310198   -0.83005 C.3        1 UNL1     0.0661
     43 C         -8.001094   3.785162   3.074546 C.2        1 UNL1     0.2131
     44 O         -9.050542   3.795856   3.692027 O.2        1 UNL1     -0.2851
     45 O         -7.792201   5.286054   5.434328 O.3        1 UNL1     -0.5056
     46 O         -2.47759   3.246104   2.292578 O.2        1 UNL1     -0.2836
     47 C         -0.725007   4.854701   -1.536662 C.3        1 UNL1     -0.0566
     48 O         -0.112137   2.172937   -2.288066 O.3        1 UNL1     -0.3909
     49 C         1.043778   0.099577   -0.155664 C.3        1 UNL1     -0.0577
     50 O         1.910295   3.16157   1.53935 O.3        1 UNL1     -0.3910
     51 O         2.588968   2.261356   4.157339 O.3        1 UNL1     -0.3753
     52 C         0.086688   -0.141357   2.718715 C.3        1 UNL1     -0.0564
     53 O         2.970629   -1.431728   1.864195 O.3        1 UNL1     -0.4608
     54 C         3.504604   -1.696537   0.630227 C.2        1 UNL1     0.3042
     55 O         2.899398   -2.013282   -0.393119 O.2        1 UNL1     -0.2512
     56 C         4.993773   -1.509351   0.56659 C.3        1 UNL1     0.0332
     57 C         4.549048   1.848356   2.566143 C.3        1 UNL1     -0.0567
     58 C         -2.387212   2.293632   5.445625 C.3        1 UNL1     0.0210
     59 C         3.522952   2.220938   5.235256 C.3        1 UNL1     0.0372
     60 C         0.263862   2.216191   4.225782 C.2        1 UNL1     -0.0208
     61 C         0.119182   3.540822   4.169516 C.2        1 UNL1     0.0882
     62 H         -1.550466   3.812471   0.141639 H        1 UNL1     0.0365
     63 H         -3.480865   4.478453   0.157709 H        1 UNL1     0.0576
     64 H         -4.758308   4.25526   -2.637841 H        1 UNL1     0.0615
     65 H         -5.879387   5.105992   0.15094 H        1 UNL1     0.0622
     66 H         1.519045   0.956158   5.301408 H        1 UNL1     0.0645
     67 H         1.542283   -0.733895   4.019461 H        1 UNL1     0.0362
     68 H         3.558678   -0.237111   3.310004 H        1 UNL1     0.0741
     69 H         4.126478   0.748976   0.915923 H        1 UNL1     0.0359
     70 H         3.186074   2.606636   0.100907 H        1 UNL1     0.0600
     71 H         1.873616   1.581983   -1.289148 H        1 UNL1     0.0348
     72 H         0.230094   3.123285   -0.364339 H        1 UNL1     0.0602
     73 H         -0.586342   1.594801   4.360966 H        1 UNL1     0.0628
     74 H         0.931316   4.242132   3.974992 H        1 UNL1     0.1022
     75 H         -8.403517   5.290343   -3.068164 H        1 UNL1     0.0279
     76 H         -8.79471   3.69898   -2.550638 H        1 UNL1     0.0279
     77 H         -9.598803   5.158941   -1.84548 H        1 UNL1     0.0279
     78 H         -8.909117   3.02417   0.011289 H        1 UNL1     0.1553
     79 H         -7.346408   2.032322   -0.696103 H        1 UNL1     0.1484
     80 H         -4.801786   -0.510427   0.528162 H        1 UNL1     0.0317
     81 H         -6.105284   0.093225   1.541287 H        1 UNL1     0.0317
     82 H         -7.70841   0.037571   -0.387597 H        1 UNL1     0.0428
     83 H         -6.977891   -1.520384   -0.070076 H        1 UNL1     0.0428
     84 H         -5.32793   0.738258   -3.276211 H        1 UNL1     0.0428
     85 H         -6.67088   1.446266   -2.448968 H        1 UNL1     0.0428
     86 H         -4.3976   2.254419   -1.813408 H        1 UNL1     0.0317
     87 H         -3.88393   0.712719   -1.301884 H        1 UNL1     0.0317
     88 H         -8.04349   -1.069244   -2.575985 H        1 UNL1     0.0429
     89 H         -6.712628   -1.135916   -3.733826 H        1 UNL1     0.0429
     90 H         -6.045151   -2.942462   -1.588877 H        1 UNL1     0.0308
     91 H         -9.000244   -2.8647   -2.161078 H        1 UNL1     0.0233
     92 H         -8.234163   -4.473346   -2.131523 H        1 UNL1     0.0233
     93 H         -8.167876   -3.438633   -0.720998 H        1 UNL1     0.0233
     94 H         -6.262866   -4.657686   -3.354855 H        1 UNL1     0.0233
     95 H         -7.005175   -3.445372   -4.410128 H        1 UNL1     0.0233
     96 H         -5.322554   -3.242368   -3.87016 H        1 UNL1     0.0233
     97 H         -4.742369   4.814773   7.607431 H        1 UNL1     0.0280
     98 H         -4.717725   6.456613   7.023528 H        1 UNL1     0.0280
     99 H         -6.280165   5.675144   7.407998 H        1 UNL1     0.0280
     100 H         -8.328028   5.768634   4.829655 H        1 UNL1     0.2922
     101 H         -0.178278   5.350127   -0.734604 H        1 UNL1     0.0236
     102 H         -1.297178   5.560252   -2.138161 H        1 UNL1     0.0236
     103 H         0.056871   4.475811   -2.215854 H        1 UNL1     0.0236
     104 H         0.829212   2.374226   -2.456338 H        1 UNL1     0.2098
     105 H         1.313336   -0.517895   -1.008822 H        1 UNL1     0.0234
     106 H         1.479588   -0.306317   0.75716 H        1 UNL1     0.0234
     107 H         0.0   0.0   0.0 H        1 UNL1     0.0234
     108 H         1.126708   3.510446   1.072397 H        1 UNL1     0.2098
     109 H         -0.668626   -0.347725   3.489834 H        1 UNL1     0.0234
     110 H         -0.263293   0.669395   2.070689 H        1 UNL1     0.0234
     111 H         0.091138   -1.022696   2.063606 H        1 UNL1     0.0234
     112 H         5.351823   -1.715597   -0.446627 H        1 UNL1     0.0342
     113 H         5.29591   -0.515353   0.892972 H        1 UNL1     0.0342
     114 H         5.460417   -2.238142   1.243547 H        1 UNL1     0.0342
     115 H         5.289253   1.12974   2.944131 H        1 UNL1     0.0234
     116 H         5.095171   2.6459   2.05848 H        1 UNL1     0.0234
     117 H         4.147981   2.257243   3.509487 H        1 UNL1     0.0234
     118 H         -1.439705   1.99705   5.928612 H        1 UNL1     0.0309
     119 H         -3.188512   2.28122   6.191257 H        1 UNL1     0.0309
     120 H         -2.59446   1.461527   4.763895 H        1 UNL1     0.0309
     121 H         4.196758   1.383463   5.056433 H        1 UNL1     0.0524
     122 H         4.137144   3.135095   5.291147 H        1 UNL1     0.0524
     123 H         3.001983   2.087933   6.179182 H        1 UNL1     0.0524
@<TRIPOS>BOND
     1     1     2    1
     2     1    42    1
     3     2     3    2
     4     3     4    1
     5     4     5    2
     6     5     7    1
     7     6    75    1
     8     6    76    1
     9     6    77    1
    10     7     9   am
    11     9    10    1
    12    10    11    2
    13    10    43    1
    14    11    14    1
    15    11    15    1
    16    12    13   ar
    17    12    27   ar
    18    12    43    1
    19    13    14    1
    20    13    30   ar
    21    14    17    2
    22    15    16    1
    23    16    17    1
    24    16    18    1
    25    16    22    1
    26    18    19    1
    27    19    20    1
    28    20    21    1
    29    21    22    1
    30    23    24    1
    31    23    88    1
    32    23    89    1
    33    24    25    1
    34    24    26    1
    35    24    90    1
    36    25    91    1
    37    25    92    1
    38    25    93    1
    39    26    94    1
    40    26    95    1
    41    26    96    1
    42    27    28   ar
    43    28    29   ar
    44    29    30   ar
    45    29    31    1
    46    30    33    1
    47    31    32    1
    48    32    33    1
    49    32    35    1
    50    34    97    1
    51    34    98    1
    52    34    99    1
    53    35    61    1
    54    36    37    1
    55    36    60    1
    56    37    38    1
    57    38    39    1
    58    39    40    1
    59    40    41    1
    60    41    42    1
    61    45   100    1
    62    47   101    1
    63    47   102    1
    64    47   103    1
    65    48   104    1
    66    49   105    1
    67    49   106    1
    68    49   107    1
    69    50   108    1
    70    51    59    1
    71    52   109    1
    72    52   110    1
    73    52   111    1
    74    53    54    1
    75    54    55    2
    76    54    56    1
    77    56   112    1
    78    56   113    1
    79    56   114    1
    80    57   115    1
    81    57   116    1
    82    57   117    1
    83    58   118    1
    84    58   119    1
    85    58   120    1
    86    59   121    1
    87    59   122    1
    88    59   123    1
    89    60    61    2
    90     1    47    1
    91     1    62    1
    92     2    63    1
    93     3    64    1
    94     4    65    1
    95     5     6    1
    96     7     8    2
    97     9    78    1
    98    15    79    1
    99    18    80    1
   100    18    81    1
   101    19    82    1
   102    19    83    1
   103    20    23    1
   104    21    84    1
   105    21    85    1
   106    22    86    1
   107    22    87    1
   108    27    45    1
   109    28    34    1
   110    32    58    1
   111    33    46    2
   112    36    51    1
   113    36    66    1
   114    37    52    1
   115    37    67    1
   116    38    53    1
   117    38    68    1
   118    42    48    1
   119    42    72    1
   120    43    44    2
   121    60    73    1
   122    61    74    1
   123    39    69    1
   124    39    57    1
   125    40    70    1
   126    40    50    1
   127    41    71    1
   128    41    49    1
