@<TRIPOS>MOLECULE
*****
 123 128 0 0 0
SMALL
GASTEIGER

@<TRIPOS>ATOM
     1 C         5.063261   2.074974   0.239038 C.3        1 UNL1     0.0009
     2 C         6.498347   2.740263   -0.727894 C.2        1 UNL1     -0.0787
     3 C         7.809728   2.559623   -1.314148 C.2        1 UNL1     -0.0649
     4 C         8.664375   3.635247   -2.303577 C.2        1 UNL1     -0.0542
     5 C         9.709042   3.759906   -3.252371 C.2        1 UNL1     0.0115
     6 C         10.897737   3.013377   -3.917968 C.3        1 UNL1     -0.0348
     7 C         9.766222   5.070816   -4.17716 C.2        1 UNL1     0.2441
     8 O         10.538033   5.997317   -3.971177 O.2        1 UNL1     -0.2702
     9 N         9.057031   4.969716   -5.386696 N.am        1 UNL1     -0.2772
     10 C         7.747122   5.351513   -5.208668 C.2        1 UNL1     0.1049
     11 C         6.932073   4.429374   -4.729527 C.2        1 UNL1     0.0801
     12 C         6.324187   7.167029   -4.240943 C.ar        1 UNL1     0.0753
     13 C         5.595927   6.132165   -3.572136 C.ar        1 UNL1     0.0305
     14 C         5.794963   4.722148   -3.899683 C.2        1 UNL1     0.0924
     15 N         7.117627   3.106791   -4.578292 N.pl3        1 UNL1     -0.3170
     16 C         5.862489   2.530249   -4.175201 C.3        1 UNL1     0.1275
     17 N         5.145953   3.648427   -3.45828 N.2        1 UNL1     -0.2557
     18 C         5.060999   2.259054   -5.444756 C.3        1 UNL1     0.0016
     19 C         5.89043   1.377112   -6.364437 C.3        1 UNL1     0.0026
     20 N         6.202753   0.137272   -5.667099 N.3        1 UNL1     -0.3018
     21 C         6.92023   0.299847   -4.400938 C.3        1 UNL1     0.0026
     22 C         6.067019   1.18511   -3.490864 C.3        1 UNL1     0.0016
     23 C         6.727337   -0.887949   -6.547086 C.3        1 UNL1     0.0012
     24 C         5.625246   -1.411124   -7.481665 C.3        1 UNL1     -0.0339
     25 C         5.731758   -0.785594   -8.882174 C.3        1 UNL1     -0.0615
     26 C         5.67038   -2.92806   -7.542069 C.3        1 UNL1     -0.0615
     27 C         6.043578   8.51173   -4.010392 C.ar        1 UNL1     0.1347
     28 C         5.03496   8.941935   -3.166789 C.ar        1 UNL1     0.0342
     29 C         4.363836   7.906561   -2.48213 C.ar        1 UNL1     0.1435
     30 C         4.658395   6.556382   -2.675704 C.ar        1 UNL1     0.0774
     31 O         3.284482   8.156807   -1.709227 O.3        1 UNL1     -0.4436
     32 C         2.622434   6.888664   -1.589309 C.3        1 UNL1     0.3143
     33 C         3.698256   5.853898   -1.850225 C.2        1 UNL1     0.2504
     34 C         4.512513   10.347724   -3.062362 C.3        1 UNL1     -0.0327
     35 O         2.226479   6.742654   -0.219947 O.2        1 UNL1     -0.4528
     36 C         -0.912175   4.608455   -0.266117 C.3        1 UNL1     0.0854
     37 C         -1.126115   3.163971   -0.862119 C.3        1 UNL1     0.0236
     38 C         -1.704592   2.084524   0.173207 C.3        1 UNL1     0.1131
     39 C         -1.011442   1.89873   1.582921 C.3        1 UNL1     0.0200
     40 C         0.651306   1.850895   1.707097 C.3        1 UNL1     0.0661
     41 C         1.690126   0.887826   0.773845 C.3        1 UNL1     0.0091
     42 C         3.402638   1.200023   0.194846 C.3        1 UNL1     0.0661
     43 C         7.327835   6.760184   -5.25555 C.2        1 UNL1     0.2131
     44 O         7.718564   7.491984   -6.146919 O.2        1 UNL1     -0.2851
     45 O         6.829357   9.456518   -4.667176 O.3        1 UNL1     -0.5056
     46 O         3.760016   4.713378   -1.448661 O.2        1 UNL1     -0.2836
     47 C         5.417614   2.002027   1.748705 C.3        1 UNL1     -0.0566
     48 O         3.907071   -0.131499   0.609228 O.3        1 UNL1     -0.3909
     49 C         0.918683   0.339176   -0.405711 C.3        1 UNL1     -0.0577
     50 O         1.182344   3.154897   1.830788 O.3        1 UNL1     -0.3910
     51 O         -1.08562   4.731779   1.127489 O.3        1 UNL1     -0.3753
     52 C         -0.028926   2.800741   -1.9153 C.3        1 UNL1     -0.0564
     53 O         -2.224638   0.839943   -0.484742 O.3        1 UNL1     -0.4608
     54 C         -2.391512   -0.373739   0.129309 C.2        1 UNL1     0.3042
     55 O         -1.754523   -1.406827   -0.072716 O.2        1 UNL1     -0.2512
     56 C         -3.447114   -0.36688   1.198127 C.3        1 UNL1     0.0332
     57 C         -1.811918   2.79767   2.636164 C.3        1 UNL1     -0.0567
     58 C         1.583623   6.827648   -2.733283 C.3        1 UNL1     0.0210
     59 C         -1.479096   6.029949   1.569979 C.3        1 UNL1     0.0372
     60 C         0.397259   5.235958   -0.592892 C.2        1 UNL1     -0.0208
     61 C         1.254045   5.902089   0.182307 C.2        1 UNL1     0.0882
     62 H         4.542686   3.027933   0.085474 H        1 UNL1     0.0365
     63 H         6.183364   3.775691   -0.873307 H        1 UNL1     0.0576
     64 H         8.316874   1.592382   -1.295293 H        1 UNL1     0.0615
     65 H         8.124832   4.579333   -2.189219 H        1 UNL1     0.0622
     66 H         -1.674427   5.226812   -0.760743 H        1 UNL1     0.0645
     67 H         -1.977976   3.28291   -1.554034 H        1 UNL1     0.0362
     68 H         -2.683152   2.540807   0.387096 H        1 UNL1     0.0741
     69 H         -1.30745   0.942349   1.99295 H        1 UNL1     0.0359
     70 H         0.754478   1.413142   2.718428 H        1 UNL1     0.0600
     71 H         1.759399   -0.006999   1.423034 H        1 UNL1     0.0348
     72 H         3.235587   1.89079   1.034043 H        1 UNL1     0.0602
     73 H         0.549492   5.199803   -1.643019 H        1 UNL1     0.0628
     74 H         1.201177   5.93781   1.27096 H        1 UNL1     0.1022
     75 H         10.965301   1.96575   -3.537249 H        1 UNL1     0.0279
     76 H         10.837855   2.868089   -4.994247 H        1 UNL1     0.0279
     77 H         11.87557   3.416957   -3.616862 H        1 UNL1     0.0279
     78 H         9.053896   4.00174   -5.701479 H        1 UNL1     0.1553
     79 H         7.825509   2.584841   -5.061411 H        1 UNL1     0.1484
     80 H         4.114263   1.776414   -5.173621 H        1 UNL1     0.0317
     81 H         4.801901   3.194947   -5.951337 H        1 UNL1     0.0317
     82 H         6.807115   1.885308   -6.698109 H        1 UNL1     0.0428
     83 H         5.300972   1.197629   -7.26409 H        1 UNL1     0.0428
     84 H         7.07191   -0.638862   -3.859062 H        1 UNL1     0.0428
     85 H         7.937145   0.686814   -4.554097 H        1 UNL1     0.0428
     86 H         6.555569   1.172837   -2.534226 H        1 UNL1     0.0317
     87 H         5.104445   0.698894   -3.290511 H        1 UNL1     0.0317
     88 H         7.520783   -0.439451   -7.159122 H        1 UNL1     0.0429
     89 H         7.184876   -1.706813   -5.977091 H        1 UNL1     0.0429
     90 H         4.645748   -1.157192   -7.059391 H        1 UNL1     0.0308
     91 H         6.712195   -0.975575   -9.329109 H        1 UNL1     0.0233
     92 H         4.954694   -1.179625   -9.541355 H        1 UNL1     0.0233
     93 H         5.595402   0.3025   -8.865041 H        1 UNL1     0.0233
     94 H         5.036085   -3.292637   -8.357292 H        1 UNL1     0.0233
     95 H         6.69312   -3.264061   -7.734599 H        1 UNL1     0.0233
     96 H         5.322098   -3.375202   -6.606797 H        1 UNL1     0.0233
     97 H         3.686041   10.424293   -2.36214 H        1 UNL1     0.0280
     98 H         5.277542   11.047826   -2.702021 H        1 UNL1     0.0280
     99 H         4.16022   10.684893   -4.050947 H        1 UNL1     0.0280
     100 H         6.344093   10.097161   -5.156786 H        1 UNL1     0.2922
     101 H         4.550052   1.662268   2.313998 H        1 UNL1     0.0236
     102 H         5.820736   2.935507   2.139972 H        1 UNL1     0.0236
     103 H         6.197933   1.250563   1.955094 H        1 UNL1     0.0236
     104 H         4.289642   -0.03677   1.503452 H        1 UNL1     0.2098
     105 H         0.69191   1.073336   -1.174733 H        1 UNL1     0.0234
     106 H         1.348129   -0.55682   -0.853698 H        1 UNL1     0.0234
     107 H         0.0   -0.0   0.0 H        1 UNL1     0.0234
     108 H         1.000412   3.62288   0.993136 H        1 UNL1     0.2098
     109 H         0.984117   2.840333   -1.491168 H        1 UNL1     0.0234
     110 H         -0.190937   1.825405   -2.386696 H        1 UNL1     0.0234
     111 H         -0.02655   3.506093   -2.756976 H        1 UNL1     0.0234
     112 H         -3.51485   -1.356239   1.660649 H        1 UNL1     0.0342
     113 H         -3.266771   0.402951   1.946913 H        1 UNL1     0.0342
     114 H         -4.414157   -0.149907   0.723875 H        1 UNL1     0.0342
     115 H         -2.873344   2.51858   2.687861 H        1 UNL1     0.0234
     116 H         -1.411421   2.755172   3.650977 H        1 UNL1     0.0234
     117 H         -1.884713   3.859114   2.342942 H        1 UNL1     0.0234
     118 H         0.644623   7.34461   -2.468642 H        1 UNL1     0.0309
     119 H         1.960829   7.231583   -3.678141 H        1 UNL1     0.0309
     120 H         1.25644   5.804834   -2.949868 H        1 UNL1     0.0309
     121 H         -0.667429   6.718186   1.33571 H        1 UNL1     0.0524
     122 H         -2.382124   6.392826   1.051426 H        1 UNL1     0.0524
     123 H         -1.666358   6.021564   2.640006 H        1 UNL1     0.0524
@<TRIPOS>BOND
     1     1     2    1
     2     1    42    1
     3     2     3    2
     4     3     4    1
     5     4     5    2
     6     5     7    1
     7     6    75    1
     8     6    76    1
     9     6    77    1
    10     7     9   am
    11     9    10    1
    12    10    11    2
    13    10    43    1
    14    11    14    1
    15    11    15    1
    16    12    13   ar
    17    12    27   ar
    18    12    43    1
    19    13    14    1
    20    13    30   ar
    21    14    17    2
    22    15    16    1
    23    16    17    1
    24    16    18    1
    25    16    22    1
    26    18    19    1
    27    19    20    1
    28    20    21    1
    29    21    22    1
    30    23    24    1
    31    23    88    1
    32    23    89    1
    33    24    25    1
    34    24    26    1
    35    24    90    1
    36    25    91    1
    37    25    92    1
    38    25    93    1
    39    26    94    1
    40    26    95    1
    41    26    96    1
    42    27    28   ar
    43    28    29   ar
    44    29    30   ar
    45    29    31    1
    46    30    33    1
    47    31    32    1
    48    32    33    1
    49    32    35    1
    50    34    97    1
    51    34    98    1
    52    34    99    1
    53    35    61    1
    54    36    37    1
    55    36    60    1
    56    37    38    1
    57    38    39    1
    58    39    40    1
    59    40    41    1
    60    41    42    1
    61    45   100    1
    62    47   101    1
    63    47   102    1
    64    47   103    1
    65    48   104    1
    66    49   105    1
    67    49   106    1
    68    49   107    1
    69    50   108    1
    70    51    59    1
    71    52   109    1
    72    52   110    1
    73    52   111    1
    74    53    54    1
    75    54    55    2
    76    54    56    1
    77    56   112    1
    78    56   113    1
    79    56   114    1
    80    57   115    1
    81    57   116    1
    82    57   117    1
    83    58   118    1
    84    58   119    1
    85    58   120    1
    86    59   121    1
    87    59   122    1
    88    59   123    1
    89    60    61    2
    90     1    47    1
    91     1    62    1
    92     2    63    1
    93     3    64    1
    94     4    65    1
    95     5     6    1
    96     7     8    2
    97     9    78    1
    98    15    79    1
    99    18    80    1
   100    18    81    1
   101    19    82    1
   102    19    83    1
   103    20    23    1
   104    21    84    1
   105    21    85    1
   106    22    86    1
   107    22    87    1
   108    27    45    1
   109    28    34    1
   110    32    58    1
   111    33    46    2
   112    36    51    1
   113    36    66    1
   114    37    52    1
   115    37    67    1
   116    38    53    1
   117    38    68    1
   118    42    48    1
   119    42    72    1
   120    43    44    2
   121    60    73    1
   122    61    74    1
   123    39    69    1
   124    39    57    1
   125    40    70    1
   126    40    50    1
   127    41    71    1
   128    41    49    1
