@<TRIPOS>MOLECULE
*****
 123 128 0 0 0
SMALL
GASTEIGER

@<TRIPOS>ATOM
     1 C         4.112815   -1.390494   -2.436526 C.3        1 UNL1     0.0009
     2 C         4.655838   -1.433668   -4.208615 C.2        1 UNL1     -0.0787
     3 C         5.06342   -2.18119   -5.379569 C.2        1 UNL1     -0.0649
     4 C         5.358996   -1.592383   -6.939152 C.2        1 UNL1     -0.0542
     5 C         5.462038   -1.935934   -8.309711 C.2        1 UNL1     0.0115
     6 C         5.531754   -3.12677   -9.304885 C.3        1 UNL1     -0.0348
     7 C         5.361995   -0.772982   -9.411764 C.2        1 UNL1     0.2441
     8 O         6.340351   -0.312245   -9.983663 O.2        1 UNL1     -0.2702
     9 N         4.059324   -0.501781   -9.86525 N.am        1 UNL1     -0.2772
     10 C         3.455345   0.435112   -9.058551 C.2        1 UNL1     0.1049
     11 C         2.903603   -0.02128   -7.948818 C.2        1 UNL1     0.0801
     12 C         3.818689   2.673655   -8.002976 C.ar        1 UNL1     0.0753
     13 C         3.408651   2.071906   -6.770753 C.ar        1 UNL1     0.0305
     14 C         2.812228   0.738566   -6.731583 C.2        1 UNL1     0.0924
     15 N         2.646836   -1.284422   -7.567938 N.pl3        1 UNL1     -0.3170
     16 C         1.880916   -1.229381   -6.351142 C.3        1 UNL1     0.1275
     17 N         2.289657   0.072299   -5.705943 N.2        1 UNL1     -0.2557
     18 C         0.416367   -1.064885   -6.745779 C.3        1 UNL1     0.0016
     19 C         0.033055   -2.20321   -7.677914 C.3        1 UNL1     0.0026
     20 N         0.250876   -3.466812   -6.987341 N.3        1 UNL1     -0.3018
     21 C         1.618712   -3.688893   -6.513976 C.3        1 UNL1     0.0026
     22 C         1.981256   -2.536398   -5.57578 C.3        1 UNL1     0.0016
     23 C         -0.35816   -4.593001   -7.666619 C.3        1 UNL1     0.0012
     24 C         0.036293   -4.603627   -9.151897 C.3        1 UNL1     -0.0339
     25 C         1.081047   -5.692003   -9.44852 C.3        1 UNL1     -0.0615
     26 C         -1.20076   -4.765326   -10.018115 C.3        1 UNL1     -0.0615
     27 C         4.273726   3.989363   -8.047386 C.ar        1 UNL1     0.1347
     28 C         4.325553   4.811578   -6.935933 C.ar        1 UNL1     0.0342
     29 C         3.963332   4.182615   -5.725823 C.ar        1 UNL1     0.1435
     30 C         3.539943   2.854574   -5.660479 C.ar        1 UNL1     0.0774
     31 O         3.856799   4.879748   -4.573581 O.3        1 UNL1     -0.4436
     32 C         3.042541   4.056114   -3.725357 C.3        1 UNL1     0.3143
     33 C         3.201655   2.650049   -4.267462 C.2        1 UNL1     0.2504
     34 C         4.560458   6.296427   -6.947826 C.3        1 UNL1     -0.0327
     35 O         3.636   4.07006   -2.421185 O.2        1 UNL1     -0.4528
     36 C         0.772433   3.623241   0.030024 C.3        1 UNL1     0.0854
     37 C         -0.285257   2.457113   0.124671 C.3        1 UNL1     0.0236
     38 C         -0.37053   1.736435   1.55474 C.3        1 UNL1     0.1131
     39 C         0.950255   1.212409   2.249861 C.3        1 UNL1     0.0200
     40 C         2.106751   0.400753   1.363199 C.3        1 UNL1     0.0661
     41 C         1.822564   -0.905587   0.319013 C.3        1 UNL1     0.0091
     42 C         2.676669   -1.400787   -1.227171 C.3        1 UNL1     0.0661
     43 C         3.658881   1.879306   -9.24625 C.2        1 UNL1     0.2131
     44 O         3.590344   2.373922   -10.356833 O.2        1 UNL1     -0.2851
     45 O         4.696883   4.484368   -9.279193 O.3        1 UNL1     -0.5056
     46 O         3.095178   1.59834   -3.677188 O.2        1 UNL1     -0.2836
     47 C         5.318164   -1.661221   -1.496409 C.3        1 UNL1     -0.0566
     48 O         2.80017   -2.82617   -0.837109 O.3        1 UNL1     -0.3909
     49 C         0.336885   -1.00364   0.053238 C.3        1 UNL1     -0.0577
     50 O         3.009199   1.309621   0.765479 O.3        1 UNL1     -0.3910
     51 O         1.625498   3.772989   1.142358 O.3        1 UNL1     -0.3753
     52 C         -0.393396   1.659477   -1.215864 C.3        1 UNL1     -0.0564
     53 O         -1.597832   0.89038   1.728657 O.3        1 UNL1     -0.4608
     54 C         -1.645916   -0.317669   2.37382 C.2        1 UNL1     0.3042
     55 O         -2.538068   -0.735831   3.110734 O.2        1 UNL1     -0.2512
     56 C         -0.478346   -1.211135   2.065255 C.3        1 UNL1     0.0332
     57 C         1.447121   2.348692   3.25989 C.3        1 UNL1     -0.0567
     58 C         1.581365   4.512806   -3.944274 C.3        1 UNL1     0.0210
     59 C         3.006178   3.531137   0.875716 C.3        1 UNL1     0.0372
     60 C         1.64295   3.586244   -1.176621 C.2        1 UNL1     -0.0208
     61 C         2.95957   3.760698   -1.298365 C.2        1 UNL1     0.0882
     62 H         4.014317   -0.300941   -2.513236 H        1 UNL1     0.0365
     63 H         4.727558   -0.365855   -4.425643 H        1 UNL1     0.0576
     64 H         5.058782   -3.273408   -5.391665 H        1 UNL1     0.0615
     65 H         5.422147   -0.509569   -6.80128 H        1 UNL1     0.0622
     66 H         0.168451   4.536899   -0.062061 H        1 UNL1     0.0645
     67 H         -1.25939   2.974547   0.081228 H        1 UNL1     0.0362
     68 H         -0.706281   2.58581   2.169032 H        1 UNL1     0.0741
     69 H         0.681142   0.48858   3.007527 H        1 UNL1     0.0359
     70 H         2.68536   -0.063827   2.18444 H        1 UNL1     0.0600
     71 H         1.973823   -1.7498   1.02 H        1 UNL1     0.0348
     72 H         3.37239   -0.734816   -0.696351 H        1 UNL1     0.0602
     73 H         1.034825   3.513856   -2.043912 H        1 UNL1     0.0628
     74 H         3.658271   3.78585   -0.461453 H        1 UNL1     0.1022
     75 H         6.410817   -3.776801   -9.077415 H        1 UNL1     0.0279
     76 H         4.704673   -3.832565   -9.275568 H        1 UNL1     0.0279
     77 H         5.757541   -2.808874   -10.333313 H        1 UNL1     0.0279
     78 H         3.498605   -1.350203   -9.822219 H        1 UNL1     0.1553
     79 H         2.602936   -2.059773   -8.20342 H        1 UNL1     0.1484
     80 H         -0.200425   -1.064808   -5.838952 H        1 UNL1     0.0317
     81 H         0.249727   -0.100868   -7.238277 H        1 UNL1     0.0317
     82 H         0.59798   -2.165001   -8.620948 H        1 UNL1     0.0428
     83 H         -1.014294   -2.06548   -7.948361 H        1 UNL1     0.0428
     84 H         1.737169   -4.606944   -5.930056 H        1 UNL1     0.0428
     85 H         2.325028   -3.809516   -7.346973 H        1 UNL1     0.0428
     86 H         2.930669   -2.799404   -5.147491 H        1 UNL1     0.0317
     87 H         1.305928   -2.530193   -4.711494 H        1 UNL1     0.0317
     88 H         0.012969   -5.514783   -7.199848 H        1 UNL1     0.0429
     89 H         -1.4492   -4.5885   -7.546686 H        1 UNL1     0.0429
     90 H         0.462486   -3.628887   -9.41733 H        1 UNL1     0.0308
     91 H         1.066307   -5.980408   -10.503843 H        1 UNL1     0.0233
     92 H         2.083647   -5.347136   -9.184949 H        1 UNL1     0.0233
     93 H         0.909117   -6.605608   -8.866626 H        1 UNL1     0.0233
     94 H         -1.952051   -4.015587   -9.747396 H        1 UNL1     0.0233
     95 H         -0.941845   -4.618428   -11.07042 H        1 UNL1     0.0233
     96 H         -1.644396   -5.757777   -9.89897 H        1 UNL1     0.0233
     97 H         5.391381   6.572363   -7.590209 H        1 UNL1     0.0280
     98 H         3.691212   6.849902   -7.32642 H        1 UNL1     0.0280
     99 H         4.784115   6.642878   -5.925551 H        1 UNL1     0.0280
     100 H         4.019277   4.887822   -9.792708 H        1 UNL1     0.2922
     101 H         5.995255   -2.376216   -1.963301 H        1 UNL1     0.0236
     102 H         5.019935   -1.973447   -0.49613 H        1 UNL1     0.0236
     103 H         5.930781   -0.758021   -1.33791 H        1 UNL1     0.0236
     104 H         3.7506   -3.053249   -0.846479 H        1 UNL1     0.2098
     105 H         0.079475   -1.491144   -0.883721 H        1 UNL1     0.0234
     106 H         -0.245167   -1.426987   0.871724 H        1 UNL1     0.0234
     107 H         -0.0   0.0   0.0 H        1 UNL1     0.0234
     108 H         2.478619   2.029548   0.373104 H        1 UNL1     0.2098
     109 H         -0.039797   0.624008   -1.113474 H        1 UNL1     0.0234
     110 H         -1.404313   1.661449   -1.637511 H        1 UNL1     0.0234
     111 H         0.224948   2.108086   -2.004753 H        1 UNL1     0.0234
     112 H         0.383978   -0.919731   2.672566 H        1 UNL1     0.0342
     113 H         -0.719024   -2.263533   2.208002 H        1 UNL1     0.0342
     114 H         -0.209144   -1.071507   1.009225 H        1 UNL1     0.0342
     115 H         2.068473   1.935158   4.066178 H        1 UNL1     0.0234
     116 H         2.01754   3.148155   2.782889 H        1 UNL1     0.0234
     117 H         0.628967   2.812085   3.837673 H        1 UNL1     0.0234
     118 H         1.523078   5.458671   -4.510797 H        1 UNL1     0.0309
     119 H         0.965483   3.757909   -4.443296 H        1 UNL1     0.0309
     120 H         1.069591   4.749079   -3.004929 H        1 UNL1     0.0309
     121 H         3.159993   2.452441   0.886357 H        1 UNL1     0.0524
     122 H         3.311343   3.900193   -0.117616 H        1 UNL1     0.0524
     123 H         3.623923   4.005336   1.633092 H        1 UNL1     0.0524
@<TRIPOS>BOND
     1     1     2    1
     2     1    42    1
     3     2     3    2
     4     3     4    1
     5     4     5    2
     6     5     7    1
     7     6    75    1
     8     6    76    1
     9     6    77    1
    10     7     9   am
    11     9    10    1
    12    10    11    2
    13    10    43    1
    14    11    14    1
    15    11    15    1
    16    12    13   ar
    17    12    27   ar
    18    12    43    1
    19    13    14    1
    20    13    30   ar
    21    14    17    2
    22    15    16    1
    23    16    17    1
    24    16    18    1
    25    16    22    1
    26    18    19    1
    27    19    20    1
    28    20    21    1
    29    21    22    1
    30    23    24    1
    31    23    88    1
    32    23    89    1
    33    24    25    1
    34    24    26    1
    35    24    90    1
    36    25    91    1
    37    25    92    1
    38    25    93    1
    39    26    94    1
    40    26    95    1
    41    26    96    1
    42    27    28   ar
    43    28    29   ar
    44    29    30   ar
    45    29    31    1
    46    30    33    1
    47    31    32    1
    48    32    33    1
    49    32    35    1
    50    34    97    1
    51    34    98    1
    52    34    99    1
    53    35    61    1
    54    36    37    1
    55    36    60    1
    56    37    38    1
    57    38    39    1
    58    39    40    1
    59    40    41    1
    60    41    42    1
    61    45   100    1
    62    47   101    1
    63    47   102    1
    64    47   103    1
    65    48   104    1
    66    49   105    1
    67    49   106    1
    68    49   107    1
    69    50   108    1
    70    51    59    1
    71    52   109    1
    72    52   110    1
    73    52   111    1
    74    53    54    1
    75    54    55    2
    76    54    56    1
    77    56   112    1
    78    56   113    1
    79    56   114    1
    80    57   115    1
    81    57   116    1
    82    57   117    1
    83    58   118    1
    84    58   119    1
    85    58   120    1
    86    59   121    1
    87    59   122    1
    88    59   123    1
    89    60    61    2
    90     1    47    1
    91     1    62    1
    92     2    63    1
    93     3    64    1
    94     4    65    1
    95     5     6    1
    96     7     8    2
    97     9    78    1
    98    15    79    1
    99    18    80    1
   100    18    81    1
   101    19    82    1
   102    19    83    1
   103    20    23    1
   104    21    84    1
   105    21    85    1
   106    22    86    1
   107    22    87    1
   108    27    45    1
   109    28    34    1
   110    32    58    1
   111    33    46    2
   112    36    51    1
   113    36    66    1
   114    37    52    1
   115    37    67    1
   116    38    53    1
   117    38    68    1
   118    42    48    1
   119    42    72    1
   120    43    44    2
   121    60    73    1
   122    61    74    1
   123    39    69    1
   124    39    57    1
   125    40    70    1
   126    40    50    1
   127    41    71    1
   128    41    49    1
