@<TRIPOS>MOLECULE
*****
 123 128 0 0 0
SMALL
GASTEIGER

@<TRIPOS>ATOM
     1 C         4.965577   2.250137   0.540075 C.3        1 UNL1     0.0009
     2 C         6.352411   3.130973   -0.31891 C.2        1 UNL1     -0.0787
     3 C         7.665926   3.11306   -0.927518 C.2        1 UNL1     -0.0649
     4 C         8.450469   4.36999   -1.74665 C.2        1 UNL1     -0.0542
     5 C         9.477363   4.6926   -2.667785 C.2        1 UNL1     0.0115
     6 C         10.698685   4.120968   -3.439104 C.3        1 UNL1     -0.0348
     7 C         9.453394   6.127723   -3.386699 C.2        1 UNL1     0.2441
     8 O         10.175135   7.05481   -3.04593 O.2        1 UNL1     -0.2702
     9 N         8.739005   6.168458   -4.596715 N.am        1 UNL1     -0.2772
     10 C         7.411912   6.445836   -4.361749 C.2        1 UNL1     0.1049
     11 C         6.653474   5.418629   -4.024348 C.2        1 UNL1     0.0801
     12 C         5.900965   8.014804   -3.131825 C.ar        1 UNL1     0.0753
     13 C         5.237231   6.852905   -2.623832 C.ar        1 UNL1     0.0305
     14 C         5.510189   5.520698   -3.158406 C.2        1 UNL1     0.0924
     15 N         6.91286   4.100701   -4.072433 N.pl3        1 UNL1     -0.3170
     16 C         5.695293   3.401474   -3.758004 C.3        1 UNL1     0.1275
     17 N         4.925486   4.358717   -2.881187 N.2        1 UNL1     -0.2557
     18 C         4.897504   3.278067   -5.05261 C.3        1 UNL1     0.0016
     19 C         5.765068   2.590543   -6.094835 C.3        1 UNL1     0.0026
     20 N         6.151833   1.28006   -5.590775 N.3        1 UNL1     -0.3018
     21 C         6.871673   1.292049   -4.315607 C.3        1 UNL1     0.0026
     22 C         5.98009   1.982956   -3.282349 C.3        1 UNL1     0.0016
     23 C         6.723284   0.428167   -6.614673 C.3        1 UNL1     0.0012
     24 C         5.638297   -0.028737   -7.602498 C.3        1 UNL1     -0.0339
     25 C         5.686731   0.784257   -8.906626 C.3        1 UNL1     -0.0615
     26 C         5.76915   -1.518542   -7.867332 C.3        1 UNL1     -0.0615
     27 C         5.549198   9.29242   -2.702785 C.ar        1 UNL1     0.1347
     28 C         4.526791   9.535288   -1.802925 C.ar        1 UNL1     0.0342
     29 C         3.920287   8.373712   -1.279419 C.ar        1 UNL1     0.1435
     30 C         4.286646   7.08596   -1.672734 C.ar        1 UNL1     0.0774
     31 O         2.836446   8.445494   -0.476212 O.3        1 UNL1     -0.4436
     32 C         2.246254   7.138706   -0.54587 C.3        1 UNL1     0.3143
     33 C         3.374675   6.215952   -0.95988 C.2        1 UNL1     0.2504
     34 C         3.928972   10.878508   -1.489119 C.3        1 UNL1     -0.0327
     35 O         1.872355   6.768572   0.786966 O.2        1 UNL1     -0.4528
     36 C         -1.144649   4.493357   0.42756 C.3        1 UNL1     0.0854
     37 C         -1.284762   3.144063   -0.376987 C.3        1 UNL1     0.0236
     38 C         -1.792905   1.891926   0.486544 C.3        1 UNL1     0.1131
     39 C         -1.076815   1.537246   1.851713 C.3        1 UNL1     0.0200
     40 C         0.587188   1.56426   1.964871 C.3        1 UNL1     0.0661
     41 C         1.668138   0.81034   0.896807 C.3        1 UNL1     0.0091
     42 C         3.355162   1.300285   0.36831 C.3        1 UNL1     0.0661
     43 C         6.915451   7.820183   -4.197283 C.2        1 UNL1     0.2131
     44 O         7.256643   8.697189   -4.970061 O.2        1 UNL1     -0.2851
     45 O         6.275427   10.366806   -3.212416 O.3        1 UNL1     -0.5056
     46 O         3.502914   5.033593   -0.733086 O.2        1 UNL1     -0.2836
     47 C         5.33818   1.973091   2.021424 C.3        1 UNL1     -0.0566
     48 O         3.936001   -0.047867   0.578614 O.3        1 UNL1     -0.3909
     49 C         0.916469   0.401283   -0.350253 C.3        1 UNL1     -0.0577
     50 O         1.046993   2.862872   2.280958 O.3        1 UNL1     -0.3910
     51 O         -1.310938   4.397931   1.824225 O.3        1 UNL1     -0.3753
     52 C         -0.179654   3.003463   -1.474219 C.3        1 UNL1     -0.0564
     53 O         -2.250234   0.732144   -0.348969 O.3        1 UNL1     -0.4608
     54 C         -3.38041   -0.010573   -0.127599 C.2        1 UNL1     0.3042
     55 O         -4.30484   -0.216049   -0.913123 O.2        1 UNL1     -0.2512
     56 C         -3.412929   -0.668276   1.222616 C.3        1 UNL1     0.0332
     57 C         -1.915094   2.22328   3.028498 C.3        1 UNL1     -0.0567
     58 C         1.2012   7.19087   -1.684585 C.3        1 UNL1     0.0210
     59 C         -0.279409   3.683245   2.503221 C.3        1 UNL1     0.0372
     60 C         0.12508   5.234561   0.196115 C.2        1 UNL1     -0.0208
     61 C         0.951543   5.824572   1.060748 C.2        1 UNL1     0.0882
     62 H         4.391969   3.184806   0.531206 H        1 UNL1     0.0365
     63 H         5.979627   4.157314   -0.307721 H        1 UNL1     0.0576
     64 H         8.22559   2.1836   -1.053961 H        1 UNL1     0.0615
     65 H         7.861036   5.254947   -1.491892 H        1 UNL1     0.0622
     66 H         -1.944522   5.134986   0.031882 H        1 UNL1     0.0645
     67 H         -2.14861   3.317007   -1.042131 H        1 UNL1     0.0362
     68 H         -2.792905   2.255982   0.767588 H        1 UNL1     0.0741
     69 H         -1.315816   0.51547   2.114888 H        1 UNL1     0.0359
     70 H         0.724153   0.987244   2.899404 H        1 UNL1     0.0600
     71 H         1.792811   -0.165902   1.405103 H        1 UNL1     0.0348
     72 H         3.158656   1.847991   1.301434 H        1 UNL1     0.0602
     73 H         0.268769   5.36372   -0.847878 H        1 UNL1     0.0628
     74 H         0.907465   5.694791   2.142622 H        1 UNL1     0.1022
     75 H         10.545363   3.039133   -3.669665 H        1 UNL1     0.0279
     76 H         10.893434   4.544608   -4.42179 H        1 UNL1     0.0279
     77 H         11.610436   4.084663   -2.825026 H        1 UNL1     0.0279
     78 H         8.785954   5.259492   -5.052406 H        1 UNL1     0.1553
     79 H         7.643572   3.696806   -4.629086 H        1 UNL1     0.1484
     80 H         3.981407   2.708395   -4.85511 H        1 UNL1     0.0317
     81 H         4.582444   4.263034   -5.413482 H        1 UNL1     0.0317
     82 H         6.649144   3.193081   -6.350314 H        1 UNL1     0.0428
     83 H         5.177569   2.514428   -7.010314 H        1 UNL1     0.0428
     84 H         7.079984   0.293056   -3.920094 H        1 UNL1     0.0428
     85 H         7.86425   1.753612   -4.410833 H        1 UNL1     0.0428
     86 H         6.477929   1.855642   -2.338985 H        1 UNL1     0.0317
     87 H         5.047683   1.41941   -3.155349 H        1 UNL1     0.0317
     88 H         7.47345   1.011331   -7.164643 H        1 UNL1     0.0429
     89 H         7.244256   -0.43124   -6.173334 H        1 UNL1     0.0429
     90 H         4.65267   0.108195   -7.14206 H        1 UNL1     0.0308
     91 H         4.947782   0.423067   -9.628152 H        1 UNL1     0.0233
     92 H         5.506533   1.843439   -8.708458 H        1 UNL1     0.0233
     93 H         6.66551   0.727324   -9.398141 H        1 UNL1     0.0233
     94 H         6.689212   -1.903322   -7.414268 H        1 UNL1     0.0233
     95 H         4.925142   -2.052734   -7.422078 H        1 UNL1     0.0233
     96 H         5.796263   -1.732385   -8.939482 H        1 UNL1     0.0233
     97 H         4.468304   11.687543   -1.972662 H        1 UNL1     0.0280
     98 H         2.890443   10.960397   -1.835539 H        1 UNL1     0.0280
     99 H         3.954409   11.048497   -0.400288 H        1 UNL1     0.0280
     100 H         7.209821   10.264355   -3.167321 H        1 UNL1     0.2922
     101 H         6.418606   1.865322   2.114811 H        1 UNL1     0.0236
     102 H         4.804215   1.12366   2.446078 H        1 UNL1     0.0236
     103 H         5.083782   2.821744   2.678129 H        1 UNL1     0.0236
     104 H         4.401778   -0.037632   1.437635 H        1 UNL1     0.2098
     105 H         0.684329   1.222054   -1.024239 H        1 UNL1     0.0234
     106 H         1.364765   -0.425089   -0.901676 H        1 UNL1     0.0234
     107 H         0.0   -0.0   0.0 H        1 UNL1     0.0234
     108 H         2.008689   2.879293   2.111731 H        1 UNL1     0.2098
     109 H         0.830108   2.952717   -1.0435 H        1 UNL1     0.0234
     110 H         -0.338478   2.146561   -2.137723 H        1 UNL1     0.0234
     111 H         -0.170461   3.867142   -2.152393 H        1 UNL1     0.0234
     112 H         -3.095941   0.043404   1.990976 H        1 UNL1     0.0342
     113 H         -4.393712   -1.081352   1.453432 H        1 UNL1     0.0342
     114 H         -2.694604   -1.499624   1.216684 H        1 UNL1     0.0342
     115 H         -1.894958   1.62247   3.948177 H        1 UNL1     0.0234
     116 H         -1.577514   3.229166   3.285951 H        1 UNL1     0.0234
     117 H         -2.999275   2.268933   2.82748 H        1 UNL1     0.0234
     118 H         1.352072   8.061791   -2.346204 H        1 UNL1     0.0309
     119 H         1.180662   6.279763   -2.290939 H        1 UNL1     0.0309
     120 H         0.180416   7.330388   -1.31224 H        1 UNL1     0.0309
     121 H         -0.487576   2.619399   2.392517 H        1 UNL1     0.0524
     122 H         0.716508   3.87351   2.069647 H        1 UNL1     0.0524
     123 H         -0.26378   3.954668   3.554972 H        1 UNL1     0.0524
@<TRIPOS>BOND
     1     1     2    1
     2     1    42    1
     3     2     3    2
     4     3     4    1
     5     4     5    2
     6     5     7    1
     7     6    75    1
     8     6    76    1
     9     6    77    1
    10     7     9   am
    11     9    10    1
    12    10    11    2
    13    10    43    1
    14    11    14    1
    15    11    15    1
    16    12    13   ar
    17    12    27   ar
    18    12    43    1
    19    13    14    1
    20    13    30   ar
    21    14    17    2
    22    15    16    1
    23    16    17    1
    24    16    18    1
    25    16    22    1
    26    18    19    1
    27    19    20    1
    28    20    21    1
    29    21    22    1
    30    23    24    1
    31    23    88    1
    32    23    89    1
    33    24    25    1
    34    24    26    1
    35    24    90    1
    36    25    91    1
    37    25    92    1
    38    25    93    1
    39    26    94    1
    40    26    95    1
    41    26    96    1
    42    27    28   ar
    43    28    29   ar
    44    29    30   ar
    45    29    31    1
    46    30    33    1
    47    31    32    1
    48    32    33    1
    49    32    35    1
    50    34    97    1
    51    34    98    1
    52    34    99    1
    53    35    61    1
    54    36    37    1
    55    36    60    1
    56    37    38    1
    57    38    39    1
    58    39    40    1
    59    40    41    1
    60    41    42    1
    61    45   100    1
    62    47   101    1
    63    47   102    1
    64    47   103    1
    65    48   104    1
    66    49   105    1
    67    49   106    1
    68    49   107    1
    69    50   108    1
    70    51    59    1
    71    52   109    1
    72    52   110    1
    73    52   111    1
    74    53    54    1
    75    54    55    2
    76    54    56    1
    77    56   112    1
    78    56   113    1
    79    56   114    1
    80    57   115    1
    81    57   116    1
    82    57   117    1
    83    58   118    1
    84    58   119    1
    85    58   120    1
    86    59   121    1
    87    59   122    1
    88    59   123    1
    89    60    61    2
    90     1    47    1
    91     1    62    1
    92     2    63    1
    93     3    64    1
    94     4    65    1
    95     5     6    1
    96     7     8    2
    97     9    78    1
    98    15    79    1
    99    18    80    1
   100    18    81    1
   101    19    82    1
   102    19    83    1
   103    20    23    1
   104    21    84    1
   105    21    85    1
   106    22    86    1
   107    22    87    1
   108    27    45    1
   109    28    34    1
   110    32    58    1
   111    33    46    2
   112    36    51    1
   113    36    66    1
   114    37    52    1
   115    37    67    1
   116    38    53    1
   117    38    68    1
   118    42    48    1
   119    42    72    1
   120    43    44    2
   121    60    73    1
   122    61    74    1
   123    39    69    1
   124    39    57    1
   125    40    70    1
   126    40    50    1
   127    41    71    1
   128    41    49    1
