@<TRIPOS>MOLECULE
*****
 123 128 0 0 0
SMALL
GASTEIGER

@<TRIPOS>ATOM
     1 C         4.973892   2.234456   0.52839 C.3        1 UNL1     0.0009
     2 C         6.362585   3.108749   -0.334269 C.2        1 UNL1     -0.0787
     3 C         7.675074   3.084998   -0.944887 C.2        1 UNL1     -0.0649
     4 C         8.462913   4.337647   -1.767407 C.2        1 UNL1     -0.0542
     5 C         9.489537   4.654924   -2.690692 C.2        1 UNL1     0.0115
     6 C         10.707562   4.077515   -3.462921 C.3        1 UNL1     -0.0348
     7 C         9.469676   6.088885   -3.412044 C.2        1 UNL1     0.2441
     8 O         10.195322   7.013919   -3.073999 O.2        1 UNL1     -0.2702
     9 N         8.753552   6.130143   -4.621018 N.am        1 UNL1     -0.2772
     10 C         7.427848   6.412763   -4.384468 C.2        1 UNL1     0.1049
     11 C         6.666199   5.388911   -4.044116 C.2        1 UNL1     0.0801
     12 C         5.92455   7.989345   -3.154908 C.ar        1 UNL1     0.0753
     13 C         5.257379   6.830751   -2.643879 C.ar        1 UNL1     0.0305
     14 C         5.524646   5.496639   -3.176575 C.2        1 UNL1     0.0924
     15 N         6.920705   4.069965   -4.090328 N.pl3        1 UNL1     -0.3170
     16 C         5.70109   3.375725   -3.7728 C.3        1 UNL1     0.1275
     17 N         4.936146   4.337277   -2.896442 N.2        1 UNL1     -0.2557
     18 C         4.900837   3.253001   -5.065949 C.3        1 UNL1     0.0016
     19 C         5.764261   2.560524   -6.108333 C.3        1 UNL1     0.0026
     20 N         6.147035   1.24951   -5.602613 N.3        1 UNL1     -0.3018
     21 C         6.868903   1.261068   -4.328587 C.3        1 UNL1     0.0026
     22 C         5.981457   1.956999   -3.29514 C.3        1 UNL1     0.0016
     23 C         6.713778   0.393778   -6.625926 C.3        1 UNL1     0.0012
     24 C         5.629826   -0.042823   -7.624016 C.3        1 UNL1     -0.0339
     25 C         5.857126   0.582328   -9.010225 C.3        1 UNL1     -0.0615
     26 C         5.569667   -1.558661   -7.697464 C.3        1 UNL1     -0.0615
     27 C         5.578112   9.268972   -2.727529 C.ar        1 UNL1     0.1347
     28 C         4.558002   9.517116   -1.8265 C.ar        1 UNL1     0.0342
     29 C         3.948087   8.358662   -1.300048 C.ar        1 UNL1     0.1435
     30 C         4.309136   7.068908   -1.691707 C.ar        1 UNL1     0.0774
     31 O         2.865769   8.435778   -0.495282 O.3        1 UNL1     -0.4436
     32 C         2.27071   7.131034   -0.561766 C.3        1 UNL1     0.3143
     33 C         3.395114   6.20346   -0.975936 C.2        1 UNL1     0.2504
     34 C         3.965573   10.863045   -1.514085 C.3        1 UNL1     -0.0327
     35 O         1.897546   6.76456   0.772287 O.2        1 UNL1     -0.4528
     36 C         -1.128286   4.499748   0.4215 C.3        1 UNL1     0.0854
     37 C         -1.274571   3.149591   -0.380498 C.3        1 UNL1     0.0236
     38 C         -1.785926   1.900804   0.485984 C.3        1 UNL1     0.1131
     39 C         -1.069003   1.545865   1.850648 C.3        1 UNL1     0.0200
     40 C         0.595261   1.567005   1.961172 C.3        1 UNL1     0.0661
     41 C         1.671788   0.807311   0.892733 C.3        1 UNL1     0.0091
     42 C         3.359759   1.290189   0.360769 C.3        1 UNL1     0.0661
     43 C         6.936656   7.789193   -4.221604 C.2        1 UNL1     0.2131
     44 O         7.279835   8.663617   -4.996425 O.2        1 UNL1     -0.2851
     45 O         6.307454   10.339824   -3.240142 O.3        1 UNL1     -0.5056
     46 O         3.519397   5.021033   -0.7473 O.2        1 UNL1     -0.2836
     47 C         5.347794   1.958602   2.009634 C.3        1 UNL1     -0.0566
     48 O         3.936009   -0.059708   0.572497 O.3        1 UNL1     -0.3909
     49 C         0.916688   0.398851   -0.352449 C.3        1 UNL1     -0.0577
     50 O         1.060288   2.864473   2.274301 O.3        1 UNL1     -0.3910
     51 O         -1.292743   4.407333   1.818584 O.3        1 UNL1     -0.3753
     52 C         -0.171697   3.003074   -1.479201 C.3        1 UNL1     -0.0564
     53 O         -2.248782   0.741261   -0.346814 O.3        1 UNL1     -0.4608
     54 C         -2.060054   -0.581561   -0.042753 C.2        1 UNL1     0.3042
     55 O         -1.231161   -1.349081   -0.530286 O.2        1 UNL1     -0.2512
     56 C         -2.956983   -1.080386   1.054246 C.3        1 UNL1     0.0332
     57 C         -1.902939   2.236975   3.027548 C.3        1 UNL1     -0.0567
     58 C         1.224078   7.185049   -1.698944 C.3        1 UNL1     0.0210
     59 C         -2.507337   4.965751   2.317378 C.3        1 UNL1     0.0372
     60 C         0.143772   5.235917   0.186802 C.2        1 UNL1     -0.0208
     61 C         0.973728   5.824398   1.049129 C.2        1 UNL1     0.0882
     62 H         4.403681   3.171194   0.518799 H        1 UNL1     0.0365
     63 H         5.993561   4.136461   -0.324273 H        1 UNL1     0.0576
     64 H         8.231149   2.153287   -1.070594 H        1 UNL1     0.0615
     65 H         7.877107   5.225185   -1.513261 H        1 UNL1     0.0622
     66 H         -1.926433   5.143608   0.025958 H        1 UNL1     0.0645
     67 H         -2.138821   3.324539   -1.044596 H        1 UNL1     0.0362
     68 H         -2.784153   2.268988   0.767953 H        1 UNL1     0.0741
     69 H         -1.311316   0.525422   2.115958 H        1 UNL1     0.0359
     70 H         0.731582   0.991102   2.896486 H        1 UNL1     0.0600
     71 H         1.793696   -0.168504   1.402519 H        1 UNL1     0.0348
     72 H         3.166708   1.840213   1.29325 H        1 UNL1     0.0602
     73 H         0.286302   5.362754   -0.857634 H        1 UNL1     0.0628
     74 H         0.930867   5.696639   2.131292 H        1 UNL1     0.1022
     75 H         11.500072   3.742538   -2.751055 H        1 UNL1     0.0279
     76 H         10.527801   3.181072   -4.05211 H        1 UNL1     0.0279
     77 H         11.245479   4.842436   -4.041922 H        1 UNL1     0.0279
     78 H         8.796477   5.220229   -5.075211 H        1 UNL1     0.1553
     79 H         7.64907   3.66245   -4.647418 H        1 UNL1     0.1484
     80 H         3.982979   2.687015   -4.866042 H        1 UNL1     0.0317
     81 H         4.588805   4.238488   -5.428031 H        1 UNL1     0.0317
     82 H         6.650128   3.159394   -6.366226 H        1 UNL1     0.0428
     83 H         5.175061   2.484978   -7.022765 H        1 UNL1     0.0428
     84 H         7.074188   0.262003   -3.931674 H        1 UNL1     0.0428
     85 H         7.863006   1.718843   -4.426154 H        1 UNL1     0.0428
     86 H         6.480301   1.829494   -2.352332 H        1 UNL1     0.0317
     87 H         5.047202   1.397077   -3.165717 H        1 UNL1     0.0317
     88 H         7.476617   0.968242   -7.167555 H        1 UNL1     0.0429
     89 H         7.218687   -0.475109   -6.184476 H        1 UNL1     0.0429
     90 H         4.649377   0.278204   -7.252702 H        1 UNL1     0.0308
     91 H         6.902971   0.49461   -9.319444 H        1 UNL1     0.0233
     92 H         5.220589   0.104432   -9.758587 H        1 UNL1     0.0233
     93 H         5.607144   1.649955   -9.032957 H        1 UNL1     0.0233
     94 H         5.110859   -1.873171   -8.641082 H        1 UNL1     0.0233
     95 H         6.580167   -1.975012   -7.658692 H        1 UNL1     0.0233
     96 H         4.984382   -1.975213   -6.872906 H        1 UNL1     0.0233
     97 H         3.098067   10.78576   -0.865479 H        1 UNL1     0.0280
     98 H         4.675507   11.516096   -0.989896 H        1 UNL1     0.0280
     99 H         3.654568   11.355587   -2.449913 H        1 UNL1     0.0280
     100 H         5.783251   11.047461   -3.57193 H        1 UNL1     0.2922
     101 H         4.54309   1.407099   2.495383 H        1 UNL1     0.0236
     102 H         5.6154   2.860417   2.559271 H        1 UNL1     0.0236
     103 H         6.230024   1.302933   2.098861 H        1 UNL1     0.0236
     104 H         4.249305   -0.10498   1.497033 H        1 UNL1     0.2098
     105 H         0.685092   1.219542   -1.02672 H        1 UNL1     0.0234
     106 H         1.361977   -0.429052   -0.90401 H        1 UNL1     0.0234
     107 H         0.0   -0.0   0.0 H        1 UNL1     0.0234
     108 H         0.337409   3.327113   2.740324 H        1 UNL1     0.2098
     109 H         -0.217978   3.8088   -2.225106 H        1 UNL1     0.0234
     110 H         0.841299   2.94319   -1.066895 H        1 UNL1     0.0234
     111 H         -0.284869   2.06819   -2.044119 H        1 UNL1     0.0234
     112 H         -3.364639   -2.059588   0.785311 H        1 UNL1     0.0342
     113 H         -2.445697   -1.120474   2.014883 H        1 UNL1     0.0342
     114 H         -3.798532   -0.381094   1.153997 H        1 UNL1     0.0342
     115 H         -1.866159   1.64813   3.954423 H        1 UNL1     0.0234
     116 H         -1.574509   3.249886   3.268782 H        1 UNL1     0.0234
     117 H         -2.98962   2.267506   2.837462 H        1 UNL1     0.0234
     118 H         0.191036   7.117572   -1.315175 H        1 UNL1     0.0309
     119 H         1.315855   8.078089   -2.325249 H        1 UNL1     0.0309
     120 H         1.297387   6.329102   -2.378713 H        1 UNL1     0.0309
     121 H         -2.335267   5.257268   3.353122 H        1 UNL1     0.0524
     122 H         -2.810299   5.870145   1.763914 H        1 UNL1     0.0524
     123 H         -3.308104   4.233761   2.262091 H        1 UNL1     0.0524
@<TRIPOS>BOND
     1     1     2    1
     2     1    42    1
     3     2     3    2
     4     3     4    1
     5     4     5    2
     6     5     7    1
     7     6    75    1
     8     6    76    1
     9     6    77    1
    10     7     9   am
    11     9    10    1
    12    10    11    2
    13    10    43    1
    14    11    14    1
    15    11    15    1
    16    12    13   ar
    17    12    27   ar
    18    12    43    1
    19    13    14    1
    20    13    30   ar
    21    14    17    2
    22    15    16    1
    23    16    17    1
    24    16    18    1
    25    16    22    1
    26    18    19    1
    27    19    20    1
    28    20    21    1
    29    21    22    1
    30    23    24    1
    31    23    88    1
    32    23    89    1
    33    24    25    1
    34    24    26    1
    35    24    90    1
    36    25    91    1
    37    25    92    1
    38    25    93    1
    39    26    94    1
    40    26    95    1
    41    26    96    1
    42    27    28   ar
    43    28    29   ar
    44    29    30   ar
    45    29    31    1
    46    30    33    1
    47    31    32    1
    48    32    33    1
    49    32    35    1
    50    34    97    1
    51    34    98    1
    52    34    99    1
    53    35    61    1
    54    36    37    1
    55    36    60    1
    56    37    38    1
    57    38    39    1
    58    39    40    1
    59    40    41    1
    60    41    42    1
    61    45   100    1
    62    47   101    1
    63    47   102    1
    64    47   103    1
    65    48   104    1
    66    49   105    1
    67    49   106    1
    68    49   107    1
    69    50   108    1
    70    51    59    1
    71    52   109    1
    72    52   110    1
    73    52   111    1
    74    53    54    1
    75    54    55    2
    76    54    56    1
    77    56   112    1
    78    56   113    1
    79    56   114    1
    80    57   115    1
    81    57   116    1
    82    57   117    1
    83    58   118    1
    84    58   119    1
    85    58   120    1
    86    59   121    1
    87    59   122    1
    88    59   123    1
    89    60    61    2
    90     1    47    1
    91     1    62    1
    92     2    63    1
    93     3    64    1
    94     4    65    1
    95     5     6    1
    96     7     8    2
    97     9    78    1
    98    15    79    1
    99    18    80    1
   100    18    81    1
   101    19    82    1
   102    19    83    1
   103    20    23    1
   104    21    84    1
   105    21    85    1
   106    22    86    1
   107    22    87    1
   108    27    45    1
   109    28    34    1
   110    32    58    1
   111    33    46    2
   112    36    51    1
   113    36    66    1
   114    37    52    1
   115    37    67    1
   116    38    53    1
   117    38    68    1
   118    42    48    1
   119    42    72    1
   120    43    44    2
   121    60    73    1
   122    61    74    1
   123    39    69    1
   124    39    57    1
   125    40    70    1
   126    40    50    1
   127    41    71    1
   128    41    49    1
