@<TRIPOS>MOLECULE
*****
 123 128 0 0 0
SMALL
GASTEIGER

@<TRIPOS>ATOM
     1 C         2.299107   3.836156   1.538137 C.3        1 UNL1     0.0009
     2 C         1.88095   5.51799   2.196632 C.2        1 UNL1     -0.0787
     3 C         1.487153   6.892849   1.971392 C.2        1 UNL1     -0.0649
     4 C         1.103586   8.068233   3.127984 C.2        1 UNL1     -0.0542
     5 C         0.444303   9.30134   3.355738 C.2        1 UNL1     0.0115
     6 C         -0.24642   10.504771   2.657184 C.3        1 UNL1     -0.0348
     7 C         0.077391   9.719582   4.86154 C.2        1 UNL1     0.2441
     8 O         0.724852   10.536533   5.501782 O.2        1 UNL1     -0.2702
     9 N         -1.183823   9.283301   5.303296 N.am        1 UNL1     -0.2772
     10 C         -1.092148   8.023433   5.84887 C.2        1 UNL1     0.1049
     11 C         -1.115574   7.016249   4.994907 C.2        1 UNL1     0.0801
     12 C         0.224712   6.659541   7.480743 C.ar        1 UNL1     0.0753
     13 C         0.348704   5.681248   6.443353 C.ar        1 UNL1     0.0305
     14 C         -0.429597   5.771035   5.209969 C.2        1 UNL1     0.0924
     15 N         -1.424626   6.999719   3.686953 N.pl3        1 UNL1     -0.3170
     16 C         -1.463566   5.625624   3.261982 C.3        1 UNL1     0.1275
     17 N         -0.51585   4.914102   4.196483 N.2        1 UNL1     -0.2557
     18 C         -2.856133   5.092016   3.584041 C.3        1 UNL1     0.0016
     19 C         -3.886708   5.986089   2.913119 C.3        1 UNL1     0.0026
     20 N         -3.643901   5.983832   1.477128 N.3        1 UNL1     -0.3018
     21 C         -2.307138   6.423419   1.071919 C.3        1 UNL1     0.0026
     22 C         -1.287996   5.508819   1.753645 C.3        1 UNL1     0.0016
     23 C         -4.73858   6.556416   0.719191 C.3        1 UNL1     0.0012
     24 C         -6.055821   6.437406   1.501795 C.3        1 UNL1     -0.0339
     25 C         -6.683977   5.043747   1.336894 C.3        1 UNL1     -0.0615
     26 C         -5.825346   6.777221   2.96405 C.3        1 UNL1     -0.0615
     27 C         0.877255   6.503786   8.701418 C.ar        1 UNL1     0.1347
     28 C         1.646085   5.396965   9.014303 C.ar        1 UNL1     0.0342
     29 C         1.793606   4.470487   7.960244 C.ar        1 UNL1     0.1435
     30 C         1.175288   4.631035   6.719629 C.ar        1 UNL1     0.0774
     31 O         2.421164   3.288319   8.1437 O.3        1 UNL1     -0.4436
     32 C         1.967272   2.464625   7.059088 C.3        1 UNL1     0.3143
     33 C         1.526123   3.43522   5.982265 C.2        1 UNL1     0.2504
     34 C         2.166102   5.042007   10.379472 C.3        1 UNL1     -0.0327
     35 O         3.109079   1.765592   6.548322 O.2        1 UNL1     -0.4528
     36 C         1.793201   -1.526933   5.193393 C.3        1 UNL1     0.0854
     37 C         0.689703   -1.782922   4.095994 C.3        1 UNL1     0.0236
     38 C         1.158279   -2.701351   2.867715 C.3        1 UNL1     0.1131
     39 C         2.497195   -2.359538   2.09782 C.3        1 UNL1     0.0200
     40 C         2.860263   -0.782473   1.693486 C.3        1 UNL1     0.0661
     41 C         1.82145   0.307274   0.911867 C.3        1 UNL1     0.0091
     42 C         1.67656   2.129811   1.06276 C.3        1 UNL1     0.0661
     43 C         -0.69357   7.8016   7.246826 C.2        1 UNL1     0.2131
     44 O         -1.185531   8.464024   8.142318 O.2        1 UNL1     -0.2851
     45 O         0.740984   7.524035   9.640546 O.3        1 UNL1     -0.5056
     46 O         1.492968   3.266902   4.783756 O.2        1 UNL1     -0.2836
     47 C         3.716347   3.842139   0.904595 C.3        1 UNL1     -0.0566
     48 O         1.657082   2.363741   -0.401485 O.3        1 UNL1     -0.3909
     49 C         0.416159   -0.251065   0.942018 C.3        1 UNL1     -0.0577
     50 O         3.529916   -0.134148   2.756012 O.3        1 UNL1     -0.3910
     51 O         3.090192   -1.982529   4.880859 O.3        1 UNL1     -0.3753
     52 C         -0.233281   -0.536521   3.89716 C.3        1 UNL1     -0.0564
     53 O         0.021057   -3.215579   2.034275 O.3        1 UNL1     -0.4608
     54 C         -0.548889   -2.558956   0.975059 C.2        1 UNL1     0.3042
     55 O         -1.724484   -2.602155   0.614577 O.2        1 UNL1     -0.2512
     56 C         0.404204   -1.657763   0.242817 C.3        1 UNL1     0.0332
     57 C         3.661242   -3.252505   2.734828 C.3        1 UNL1     -0.0567
     58 C         0.727977   1.699891   7.579529 C.3        1 UNL1     0.0210
     59 C         3.136706   -3.080772   3.971153 C.3        1 UNL1     0.0372
     60 C         1.929349   -0.110558   5.629865 C.2        1 UNL1     -0.0208
     61 C         3.01928   0.632804   5.825332 C.2        1 UNL1     0.0882
     62 H         2.418867   3.483162   2.569527 H        1 UNL1     0.0365
     63 H         2.070908   5.372475   3.262095 H        1 UNL1     0.0576
     64 H         1.236336   7.260354   0.973825 H        1 UNL1     0.0615
     65 H         1.463227   7.637548   4.066414 H        1 UNL1     0.0622
     66 H         1.440092   -2.081123   6.074434 H        1 UNL1     0.0645
     67 H         -0.039375   -2.44267   4.597726 H        1 UNL1     0.0362
     68 H         1.362862   -3.638986   3.406704 H        1 UNL1     0.0741
     69 H         2.481031   -2.853366   1.135385 H        1 UNL1     0.0359
     70 H         3.647724   -0.956436   0.935395 H        1 UNL1     0.0600
     71 H         2.105717   0.122752   -0.142695 H        1 UNL1     0.0348
     72 H         2.670224   1.870973   1.456399 H        1 UNL1     0.0602
     73 H         0.97598   0.260612   5.91371 H        1 UNL1     0.0628
     74 H         4.023798   0.349417   5.509303 H        1 UNL1     0.1022
     75 H         0.448111   11.377485   2.602113 H        1 UNL1     0.0279
     76 H         -0.529315   10.364474   1.61634 H        1 UNL1     0.0279
     77 H         -1.073441   10.92291   3.249549 H        1 UNL1     0.0279
     78 H         -1.823116   9.229148   4.513075 H        1 UNL1     0.1553
     79 H         -1.943599   7.725675   3.228055 H        1 UNL1     0.1484
     80 H         -2.932989   4.056807   3.230204 H        1 UNL1     0.0317
     81 H         -3.02496   5.066816   4.665944 H        1 UNL1     0.0317
     82 H         -3.862882   7.008949   3.316978 H        1 UNL1     0.0428
     83 H         -4.872388   5.588712   3.157202 H        1 UNL1     0.0428
     84 H         -2.124106   6.336592   -0.003614 H        1 UNL1     0.0428
     85 H         -2.145221   7.489124   1.284931 H        1 UNL1     0.0428
     86 H         -0.335386   5.772427   1.332892 H        1 UNL1     0.0317
     87 H         -1.433704   4.473217   1.422897 H        1 UNL1     0.0317
     88 H         -4.522626   7.620723   0.55823 H        1 UNL1     0.0429
     89 H         -4.823362   6.092008   -0.271723 H        1 UNL1     0.0429
     90 H         -6.764394   7.186196   1.128361 H        1 UNL1     0.0308
     91 H         -7.776768   5.097661   1.335555 H        1 UNL1     0.0233
     92 H         -6.346873   4.575397   0.409199 H        1 UNL1     0.0233
     93 H         -6.400222   4.359421   2.145607 H        1 UNL1     0.0233
     94 H         -5.00481   6.173899   3.367234 H        1 UNL1     0.0233
     95 H         -5.549737   7.830806   3.063852 H        1 UNL1     0.0233
     96 H         -6.720249   6.588138   3.563521 H        1 UNL1     0.0233
     97 H         1.423338   5.20756   11.154149 H        1 UNL1     0.0280
     98 H         2.446283   3.983078   10.453136 H        1 UNL1     0.0280
     99 H         3.049454   5.659773   10.610016 H        1 UNL1     0.0280
     100 H         0.127585   7.341667   10.33055 H        1 UNL1     0.2922
     101 H         4.046743   4.869445   0.752483 H        1 UNL1     0.0236
     102 H         3.779802   3.252538   -0.009367 H        1 UNL1     0.0236
     103 H         4.472064   3.401653   1.576203 H        1 UNL1     0.0236
     104 H         1.696496   3.329349   -0.546462 H        1 UNL1     0.2098
     105 H         0.364394   -1.331426   1.051337 H        1 UNL1     0.0234
     106 H         -0.25103   0.233176   1.654967 H        1 UNL1     0.0234
     107 H         -0.0   0.0   0.0 H        1 UNL1     0.0234
     108 H         2.992734   0.64189   3.00695 H        1 UNL1     0.2098
     109 H         0.334187   0.359767   3.610176 H        1 UNL1     0.0234
     110 H         -1.037985   -0.707831   3.174078 H        1 UNL1     0.0234
     111 H         -0.759866   -0.270957   4.823513 H        1 UNL1     0.0234
     112 H         0.44975   -1.943102   -0.812576 H        1 UNL1     0.0342
     113 H         0.140324   -0.606954   0.352415 H        1 UNL1     0.0342
     114 H         1.405878   -1.796001   0.672589 H        1 UNL1     0.0342
     115 H         4.655847   -2.924349   2.402769 H        1 UNL1     0.0234
     116 H         3.666245   -3.262329   3.826582 H        1 UNL1     0.0234
     117 H         3.65432   -4.299127   2.384863 H        1 UNL1     0.0234
     118 H         -0.20196   2.032711   7.086119 H        1 UNL1     0.0309
     119 H         0.818938   0.613885   7.476964 H        1 UNL1     0.0309
     120 H         0.532437   1.888929   8.640724 H        1 UNL1     0.0309
     121 H         3.944127   -2.889804   3.264782 H        1 UNL1     0.0524
     122 H         3.357801   -4.034824   4.478045 H        1 UNL1     0.0524
     123 H         2.191316   -3.172427   3.443962 H        1 UNL1     0.0524
@<TRIPOS>BOND
     1     1     2    1
     2     1    42    1
     3     2     3    2
     4     3     4    1
     5     4     5    2
     6     5     7    1
     7     6    75    1
     8     6    76    1
     9     6    77    1
    10     7     9   am
    11     9    10    1
    12    10    11    2
    13    10    43    1
    14    11    14    1
    15    11    15    1
    16    12    13   ar
    17    12    27   ar
    18    12    43    1
    19    13    14    1
    20    13    30   ar
    21    14    17    2
    22    15    16    1
    23    16    17    1
    24    16    18    1
    25    16    22    1
    26    18    19    1
    27    19    20    1
    28    20    21    1
    29    21    22    1
    30    23    24    1
    31    23    88    1
    32    23    89    1
    33    24    25    1
    34    24    26    1
    35    24    90    1
    36    25    91    1
    37    25    92    1
    38    25    93    1
    39    26    94    1
    40    26    95    1
    41    26    96    1
    42    27    28   ar
    43    28    29   ar
    44    29    30   ar
    45    29    31    1
    46    30    33    1
    47    31    32    1
    48    32    33    1
    49    32    35    1
    50    34    97    1
    51    34    98    1
    52    34    99    1
    53    35    61    1
    54    36    37    1
    55    36    60    1
    56    37    38    1
    57    38    39    1
    58    39    40    1
    59    40    41    1
    60    41    42    1
    61    45   100    1
    62    47   101    1
    63    47   102    1
    64    47   103    1
    65    48   104    1
    66    49   105    1
    67    49   106    1
    68    49   107    1
    69    50   108    1
    70    51    59    1
    71    52   109    1
    72    52   110    1
    73    52   111    1
    74    53    54    1
    75    54    55    2
    76    54    56    1
    77    56   112    1
    78    56   113    1
    79    56   114    1
    80    57   115    1
    81    57   116    1
    82    57   117    1
    83    58   118    1
    84    58   119    1
    85    58   120    1
    86    59   121    1
    87    59   122    1
    88    59   123    1
    89    60    61    2
    90     1    47    1
    91     1    62    1
    92     2    63    1
    93     3    64    1
    94     4    65    1
    95     5     6    1
    96     7     8    2
    97     9    78    1
    98    15    79    1
    99    18    80    1
   100    18    81    1
   101    19    82    1
   102    19    83    1
   103    20    23    1
   104    21    84    1
   105    21    85    1
   106    22    86    1
   107    22    87    1
   108    27    45    1
   109    28    34    1
   110    32    58    1
   111    33    46    2
   112    36    51    1
   113    36    66    1
   114    37    52    1
   115    37    67    1
   116    38    53    1
   117    38    68    1
   118    42    48    1
   119    42    72    1
   120    43    44    2
   121    60    73    1
   122    61    74    1
   123    39    69    1
   124    39    57    1
   125    40    70    1
   126    40    50    1
   127    41    71    1
   128    41    49    1
