@<TRIPOS>MOLECULE
*****
 123 128 0 0 0
SMALL
GASTEIGER

@<TRIPOS>ATOM
     1 C         1.775978   -1.738894   -4.880719 C.3        1 UNL1     0.0009
     2 C         1.858303   -1.389363   -6.699534 C.2        1 UNL1     -0.0787
     3 C         1.379575   -1.621187   -8.046057 C.2        1 UNL1     -0.0649
     4 C         1.831479   -0.814685   -9.464399 C.2        1 UNL1     -0.0542
     5 C         1.458935   -0.513285   -10.797608 C.2        1 UNL1     0.0115
     6 C         0.448329   -0.853296   -11.927383 C.3        1 UNL1     -0.0348
     7 C         2.174486   0.713633   -11.545704 C.2        1 UNL1     0.2441
     8 O         3.062724   0.56178   -12.373048 O.2        1 UNL1     -0.2702
     9 N         1.536824   1.955749   -11.382337 N.am        1 UNL1     -0.2772
     10 C         1.999722   2.588096   -10.251326 C.2        1 UNL1     0.1049
     11 C         1.44053   2.224925   -9.111311 C.2        1 UNL1     0.0801
     12 C         4.102146   3.232928   -9.059128 C.ar        1 UNL1     0.0753
     13 C         3.530504   2.634636   -7.891276 C.ar        1 UNL1     0.0305
     14 C         2.127479   2.228783   -7.848195 C.2        1 UNL1     0.0924
     15 N         0.341225   1.485307   -8.885434 N.pl3        1 UNL1     -0.3170
     16 C         0.064733   1.528775   -7.474082 C.3        1 UNL1     0.1275
     17 N         1.411569   1.755731   -6.832015 N.2        1 UNL1     -0.2557
     18 C         -0.748096   2.792875   -7.211283 C.3        1 UNL1     0.0016
     19 C         -1.986377   2.766934   -8.093086 C.3        1 UNL1     0.0026
     20 N         -2.758831   1.572714   -7.779744 N.3        1 UNL1     -0.3018
     21 C         -2.040537   0.307091   -7.942899 C.3        1 UNL1     0.0026
     22 C         -0.803099   0.353122   -7.044833 C.3        1 UNL1     0.0016
     23 C         -4.094638   1.601659   -8.341371 C.3        1 UNL1     0.0012
     24 C         -4.962587   2.640189   -7.613445 C.3        1 UNL1     -0.0339
     25 C         -4.979475   3.983029   -8.362147 C.3        1 UNL1     -0.0615
     26 C         -6.365829   2.095723   -7.410353 C.3        1 UNL1     -0.0615
     27 C         5.404456   3.726965   -9.053133 C.ar        1 UNL1     0.1347
     28 C         6.214766   3.71486   -7.931839 C.ar        1 UNL1     0.0342
     29 C         5.648312   3.07698   -6.807827 C.ar        1 UNL1     0.1435
     30 C         4.358202   2.545161   -6.809876 C.ar        1 UNL1     0.0774
     31 O         6.269021   3.081083   -5.607948 O.3        1 UNL1     -0.4436
     32 C         5.230373   2.787818   -4.661333 C.3        1 UNL1     0.3143
     33 C         4.160849   2.067488   -5.457232 C.2        1 UNL1     0.2504
     34 C         7.519116   4.446509   -7.778668 C.3        1 UNL1     -0.0327
     35 O         5.761824   1.842038   -3.725217 O.2        1 UNL1     -0.4528
     36 C         3.962366   2.49793   -0.448047 C.3        1 UNL1     0.0854
     37 C         2.415516   2.483472   -0.140524 C.3        1 UNL1     0.0236
     38 C         1.972971   1.509164   1.053889 C.3        1 UNL1     0.1131
     39 C         2.453103   0.001936   1.056462 C.3        1 UNL1     0.0200
     40 C         2.415688   -0.899088   -0.346818 C.3        1 UNL1     0.0661
     41 C         1.09275   -1.045888   -1.398433 C.3        1 UNL1     0.0091
     42 C         1.038456   -1.273823   -3.217911 C.3        1 UNL1     0.0661
     43 C         3.231749   3.390879   -10.250648 C.2        1 UNL1     0.2131
     44 O         3.442263   4.200646   -11.135352 O.2        1 UNL1     -0.2851
     45 O         5.900586   4.252363   -10.244456 O.3        1 UNL1     -0.5056
     46 O         3.344209   1.263435   -5.06678 O.2        1 UNL1     -0.2836
     47 C         2.413727   -3.119151   -4.567433 C.3        1 UNL1     -0.0566
     48 O         0.045294   -2.373794   -3.164918 O.3        1 UNL1     -0.3909
     49 C         0.077134   0.021552   -1.056979 C.3        1 UNL1     -0.0577
     50 O         3.605303   -0.720561   -1.088888 O.3        1 UNL1     -0.3910
     51 O         4.735246   1.536822   0.234857 O.3        1 UNL1     -0.3753
     52 C         1.562263   2.645134   -1.440821 C.3        1 UNL1     -0.0564
     53 O         0.58283   1.768313   1.556557 O.3        1 UNL1     -0.4608
     54 C         -0.185089   0.880956   2.264249 C.2        1 UNL1     0.3042
     55 O         -1.210686   0.314955   1.887909 O.2        1 UNL1     -0.2512
     56 C         0.366301   0.559614   3.624184 C.3        1 UNL1     0.0332
     57 C         3.768538   -0.083646   1.962266 C.3        1 UNL1     -0.0567
     58 C         4.669698   4.150189   -4.191102 C.3        1 UNL1     0.0210
     59 C         6.092403   1.912432   0.464875 C.3        1 UNL1     0.0372
     60 C         4.318042   2.389569   -1.889197 C.2        1 UNL1     -0.0208
     61 C         5.243243   1.646301   -2.497721 C.2        1 UNL1     0.0882
     62 H         2.559542   -0.988512   -4.720516 H        1 UNL1     0.0365
     63 H         2.711673   -0.709089   -6.737694 H        1 UNL1     0.0576
     64 H         0.520204   -2.265376   -8.245079 H        1 UNL1     0.0615
     65 H         2.73447   -0.269002   -9.177482 H        1 UNL1     0.0622
     66 H         4.297909   3.494758   -0.129001 H        1 UNL1     0.0645
     67 H         2.220904   3.475801   0.30216 H        1 UNL1     0.0362
     68 H         2.507659   1.987134   1.888859 H        1 UNL1     0.0741
     69 H         1.814243   -0.565706   1.719824 H        1 UNL1     0.0359
     70 H         2.504796   -1.917285   0.07791 H        1 UNL1     0.0600
     71 H         0.609274   -1.948529   -0.976002 H        1 UNL1     0.0348
     72 H         2.048835   -1.574358   -2.904656 H        1 UNL1     0.0602
     73 H         3.784952   3.126537   -2.436866 H        1 UNL1     0.0628
     74 H         5.790935   0.832078   -2.021999 H        1 UNL1     0.1022
     75 H         -0.2791   -1.627327   -11.582774 H        1 UNL1     0.0279
     76 H         -0.204636   -0.046698   -12.25312 H        1 UNL1     0.0279
     77 H         0.919686   -1.363233   -12.780311 H        1 UNL1     0.0279
     78 H         0.535686   1.81357   -11.265781 H        1 UNL1     0.1553
     79 H         -0.36975   1.319628   -9.573909 H        1 UNL1     0.1484
     80 H         -1.014266   2.832201   -6.148094 H        1 UNL1     0.0317
     81 H         -0.154891   3.689814   -7.419274 H        1 UNL1     0.0317
     82 H         -1.726281   2.801125   -9.161306 H        1 UNL1     0.0428
     83 H         -2.550499   3.677981   -7.891073 H        1 UNL1     0.0428
     84 H         -2.616053   -0.567986   -7.625357 H        1 UNL1     0.0428
     85 H         -1.805143   0.103566   -8.996695 H        1 UNL1     0.0428
     86 H         -0.377643   -0.632356   -7.087372 H        1 UNL1     0.0317
     87 H         -1.105358   0.453974   -5.995279 H        1 UNL1     0.0317
     88 H         -4.014953   1.891241   -9.397348 H        1 UNL1     0.0429
     89 H         -4.56007   0.607963   -8.314629 H        1 UNL1     0.0429
     90 H         -4.557222   2.805925   -6.608247 H        1 UNL1     0.0308
     91 H         -5.345832   3.862919   -9.386089 H        1 UNL1     0.0233
     92 H         -5.606965   4.708813   -7.839555 H        1 UNL1     0.0233
     93 H         -3.982567   4.434852   -8.431906 H        1 UNL1     0.0233
     94 H         -7.034434   2.892984   -7.068039 H        1 UNL1     0.0233
     95 H         -6.757442   1.710082   -8.355807 H        1 UNL1     0.0233
     96 H         -6.378554   1.291928   -6.668922 H        1 UNL1     0.0233
     97 H         7.94887   4.310749   -6.790685 H        1 UNL1     0.0280
     98 H         8.278316   4.091856   -8.487958 H        1 UNL1     0.0280
     99 H         7.358508   5.524996   -7.940426 H        1 UNL1     0.0280
     100 H         6.237866   5.128222   -10.175642 H        1 UNL1     0.2922
     101 H         2.398535   -3.295622   -3.492127 H        1 UNL1     0.0236
     102 H         3.412573   -3.234934   -4.986819 H        1 UNL1     0.0236
     103 H         1.830827   -3.951518   -4.9959 H        1 UNL1     0.0236
     104 H         0.538711   -3.217277   -3.171833 H        1 UNL1     0.2098
     105 H         0.367594   1.027637   -1.348935 H        1 UNL1     0.0234
     106 H         -0.93761   -0.191211   -1.393064 H        1 UNL1     0.0234
     107 H         -0.0   0.0   0.0 H        1 UNL1     0.0234
     108 H         3.637565   0.215813   -1.364442 H        1 UNL1     0.2098
     109 H         1.755629   1.843775   -2.167556 H        1 UNL1     0.0234
     110 H         0.48663   2.71002   -1.244483 H        1 UNL1     0.0234
     111 H         1.794515   3.582666   -1.963352 H        1 UNL1     0.0234
     112 H         -0.288597   -0.154957   4.131966 H        1 UNL1     0.0342
     113 H         1.387932   0.18598   3.574067 H        1 UNL1     0.0342
     114 H         0.378918   1.484793   4.216678 H        1 UNL1     0.0342
     115 H         3.57273   0.228759   2.997278 H        1 UNL1     0.0234
     116 H         4.218436   -1.077779   1.998876 H        1 UNL1     0.0234
     117 H         4.552998   0.634538   1.667687 H        1 UNL1     0.0234
     118 H         5.283162   4.596379   -3.388866 H        1 UNL1     0.0309
     119 H         4.562318   4.874514   -5.004752 H        1 UNL1     0.0309
     120 H         3.679174   4.061135   -3.731713 H        1 UNL1     0.0309
     121 H         6.565774   2.049588   -0.50696 H        1 UNL1     0.0524
     122 H         6.175536   2.866152   1.012182 H        1 UNL1     0.0524
     123 H         6.6068   1.137699   1.026371 H        1 UNL1     0.0524
@<TRIPOS>BOND
     1     1     2    1
     2     1    42    1
     3     2     3    2
     4     3     4    1
     5     4     5    2
     6     5     7    1
     7     6    75    1
     8     6    76    1
     9     6    77    1
    10     7     9   am
    11     9    10    1
    12    10    11    2
    13    10    43    1
    14    11    14    1
    15    11    15    1
    16    12    13   ar
    17    12    27   ar
    18    12    43    1
    19    13    14    1
    20    13    30   ar
    21    14    17    2
    22    15    16    1
    23    16    17    1
    24    16    18    1
    25    16    22    1
    26    18    19    1
    27    19    20    1
    28    20    21    1
    29    21    22    1
    30    23    24    1
    31    23    88    1
    32    23    89    1
    33    24    25    1
    34    24    26    1
    35    24    90    1
    36    25    91    1
    37    25    92    1
    38    25    93    1
    39    26    94    1
    40    26    95    1
    41    26    96    1
    42    27    28   ar
    43    28    29   ar
    44    29    30   ar
    45    29    31    1
    46    30    33    1
    47    31    32    1
    48    32    33    1
    49    32    35    1
    50    34    97    1
    51    34    98    1
    52    34    99    1
    53    35    61    1
    54    36    37    1
    55    36    60    1
    56    37    38    1
    57    38    39    1
    58    39    40    1
    59    40    41    1
    60    41    42    1
    61    45   100    1
    62    47   101    1
    63    47   102    1
    64    47   103    1
    65    48   104    1
    66    49   105    1
    67    49   106    1
    68    49   107    1
    69    50   108    1
    70    51    59    1
    71    52   109    1
    72    52   110    1
    73    52   111    1
    74    53    54    1
    75    54    55    2
    76    54    56    1
    77    56   112    1
    78    56   113    1
    79    56   114    1
    80    57   115    1
    81    57   116    1
    82    57   117    1
    83    58   118    1
    84    58   119    1
    85    58   120    1
    86    59   121    1
    87    59   122    1
    88    59   123    1
    89    60    61    2
    90     1    47    1
    91     1    62    1
    92     2    63    1
    93     3    64    1
    94     4    65    1
    95     5     6    1
    96     7     8    2
    97     9    78    1
    98    15    79    1
    99    18    80    1
   100    18    81    1
   101    19    82    1
   102    19    83    1
   103    20    23    1
   104    21    84    1
   105    21    85    1
   106    22    86    1
   107    22    87    1
   108    27    45    1
   109    28    34    1
   110    32    58    1
   111    33    46    2
   112    36    51    1
   113    36    66    1
   114    37    52    1
   115    37    67    1
   116    38    53    1
   117    38    68    1
   118    42    48    1
   119    42    72    1
   120    43    44    2
   121    60    73    1
   122    61    74    1
   123    39    69    1
   124    39    57    1
   125    40    70    1
   126    40    50    1
   127    41    71    1
   128    41    49    1
