@<TRIPOS>MOLECULE
*****
 123 128 0 0 0
SMALL
GASTEIGER

@<TRIPOS>ATOM
     1 C         2.197894   -3.28085   -3.79224 C.3        1 UNL1     0.0009
     2 C         1.967277   -4.096217   -5.441188 C.2        1 UNL1     -0.0787
     3 C         1.637166   -5.264957   -6.229299 C.2        1 UNL1     -0.0649
     4 C         1.467653   -5.372494   -7.910387 C.2        1 UNL1     -0.0542
     5 C         0.91895   -6.127746   -8.976031 C.2        1 UNL1     0.0115
     6 C         0.227923   -7.470943   -9.338838 C.3        1 UNL1     -0.0348
     7 C         0.759388   -5.436921   -10.41627 C.2        1 UNL1     0.2441
     8 O         1.528101   -5.647767   -11.344253 O.2        1 UNL1     -0.2702
     9 N         -0.465883   -4.779076   -10.621458 N.am        1 UNL1     -0.2772
     10 C         -0.390129   -3.476013   -10.186016 C.2        1 UNL1     0.1049
     11 C         -0.577633   -3.282559   -8.893097 C.2        1 UNL1     0.0801
     12 C         1.021407   -1.415792   -10.3288 C.ar        1 UNL1     0.0753
     13 C         0.960176   -1.369592   -8.899561 C.ar        1 UNL1     0.0305
     14 C         0.049008   -2.226861   -8.144633 C.2        1 UNL1     0.0924
     15 N         -1.039274   -4.123646   -7.951827 N.pl3        1 UNL1     -0.3170
     16 C         -1.21468   -3.371182   -6.738037 C.3        1 UNL1     0.1275
     17 N         -0.210103   -2.249536   -6.840304 N.2        1 UNL1     -0.2557
     18 C         -2.590385   -2.715201   -6.807505 C.3        1 UNL1     0.0016
     19 C         -3.634462   -3.797443   -7.031661 C.3        1 UNL1     0.0026
     20 N         -3.563414   -4.750707   -5.932903 N.3        1 UNL1     -0.3018
     21 C         -2.258751   -5.389244   -5.747175 C.3        1 UNL1     0.0026
     22 C         -1.226025   -4.28411   -5.519029 C.3        1 UNL1     0.0016
     23 C         -4.701563   -5.647016   -5.889448 C.3        1 UNL1     0.0012
     24 C         -4.480406   -6.844269   -6.827228 C.3        1 UNL1     -0.0339
     25 C         -3.003181   -6.975398   -7.233022 C.3        1 UNL1     -0.0615
     26 C         -4.996863   -8.116563   -6.178136 C.3        1 UNL1     -0.0615
     27 C         1.802286   -0.513511   -11.047296 C.ar        1 UNL1     0.1347
     28 C         2.531307   0.500276   -10.451634 C.ar        1 UNL1     0.0342
     29 C         2.494694   0.495852   -9.04103 C.ar        1 UNL1     0.1435
     30 C         1.745681   -0.424238   -8.306432 C.ar        1 UNL1     0.0774
     31 O         3.063689   1.485158   -8.318171 O.3        1 UNL1     -0.4436
     32 C         2.433948   1.401908   -7.030783 C.3        1 UNL1     0.3143
     33 C         1.930933   -0.023742   -6.927284 C.2        1 UNL1     0.2504
     34 C         3.185336   1.651536   -11.163636 C.3        1 UNL1     -0.0327
     35 O         3.461131   1.554596   -6.043446 O.2        1 UNL1     -0.4528
     36 C         1.789534   3.173104   -3.044399 C.3        1 UNL1     0.0854
     37 C         0.550329   2.675175   -2.205377 C.3        1 UNL1     0.0236
     38 C         0.811835   2.539875   -0.628973 C.3        1 UNL1     0.1131
     39 C         2.069434   1.734056   -0.108041 C.3        1 UNL1     0.0200
     40 C         2.481007   0.272041   -0.797649 C.3        1 UNL1     0.0661
     41 C         1.428047   -1.029898   -1.069387 C.3        1 UNL1     0.0091
     42 C         1.417224   -2.294236   -2.398574 C.3        1 UNL1     0.0661
     43 C         0.155818   -2.399335   -11.025693 C.2        1 UNL1     0.2131
     44 O         -0.184277   -2.290683   -12.189853 O.2        1 UNL1     -0.2851
     45 O         1.842402   -0.655669   -12.432799 O.3        1 UNL1     -0.5056
     46 O         1.746047   -0.687143   -5.931508 O.2        1 UNL1     -0.2836
     47 C         3.528018   -3.746972   -3.141485 C.3        1 UNL1     -0.0566
     48 O         1.23991   -3.435401   -1.468296 O.3        1 UNL1     -0.3909
     49 C         0.00373   -0.547563   -0.907624 C.3        1 UNL1     -0.0577
     50 O         3.310901   0.465745   -1.925247 O.3        1 UNL1     -0.3910
     51 O         3.009251   3.269042   -2.34403 O.3        1 UNL1     -0.3753
     52 C         -0.309199   1.636587   -2.997525 C.3        1 UNL1     -0.0564
     53 O         -0.445936   2.411033   0.179567 O.3        1 UNL1     -0.4608
     54 C         -0.51585   1.976982   1.477505 C.2        1 UNL1     0.3042
     55 O         -0.395604   0.822839   1.886567 O.2        1 UNL1     -0.2512
     56 C         -0.707054   3.085705   2.472938 C.3        1 UNL1     0.0332
     57 C         3.241851   2.788983   0.157934 C.3        1 UNL1     -0.0567
     58 C         1.218965   2.357598   -7.075545 C.3        1 UNL1     0.0210
     59 C         3.559541   2.021083   -1.924928 C.3        1 UNL1     0.0372
     60 C         2.065298   2.393495   -4.281866 C.2        1 UNL1     -0.0208
     61 C         3.215382   1.930815   -4.77378 C.2        1 UNL1     0.0882
     62 H         2.416005   -2.338982   -4.30995 H        1 UNL1     0.0365
     63 H         2.272062   -3.289801   -6.111464 H        1 UNL1     0.0576
     64 H         1.294082   -6.191371   -5.763295 H        1 UNL1     0.0615
     65 H         1.90762   -4.441012   -8.276794 H        1 UNL1     0.0622
     66 H         1.508598   4.181379   -3.379815 H        1 UNL1     0.0645
     67 H         -0.154611   3.523998   -2.238853 H        1 UNL1     0.0362
     68 H         1.019032   3.593187   -0.385815 H        1 UNL1     0.0741
     69 H         1.908709   1.470289   0.928782 H        1 UNL1     0.0359
     70 H         3.160968   -0.121778   -0.01815 H        1 UNL1     0.0600
     71 H         1.573692   -1.595922   -0.128451 H        1 UNL1     0.0348
     72 H         2.432072   -1.870747   -2.391126 H        1 UNL1     0.0602
     73 H         1.177403   2.331442   -4.860693 H        1 UNL1     0.0628
     74 H         4.155705   1.904151   -4.222128 H        1 UNL1     0.1022
     75 H         -0.392185   -7.835971   -8.484873 H        1 UNL1     0.0279
     76 H         -0.49084   -7.441885   -10.154683 H        1 UNL1     0.0279
     77 H         0.94263   -8.298534   -9.457106 H        1 UNL1     0.0279
     78 H         -1.196083   -5.240146   -10.082663 H        1 UNL1     0.1553
     79 H         -1.561936   -4.955511   -8.156174 H        1 UNL1     0.1484
     80 H         -2.773598   -2.16907   -5.874264 H        1 UNL1     0.0317
     81 H         -2.631631   -1.97723   -7.615805 H        1 UNL1     0.0317
     82 H         -3.498681   -4.299665   -8.000809 H        1 UNL1     0.0428
     83 H         -4.607547   -3.307714   -7.079857 H        1 UNL1     0.0428
     84 H         -2.209743   -6.039339   -4.868093 H        1 UNL1     0.0428
     85 H         -2.005936   -6.053806   -6.584885 H        1 UNL1     0.0428
     86 H         -0.314997   -4.788958   -5.256076 H        1 UNL1     0.0317
     87 H         -1.474771   -3.720332   -4.611628 H        1 UNL1     0.0317
     88 H         -4.802347   -6.021512   -4.86237 H        1 UNL1     0.0429
     89 H         -5.633381   -5.120375   -6.132634 H        1 UNL1     0.0429
     90 H         -5.080709   -6.70577   -7.734238 H        1 UNL1     0.0308
     91 H         -2.86636   -7.752723   -7.990748 H        1 UNL1     0.0233
     92 H         -2.623109   -6.026868   -7.619603 H        1 UNL1     0.0233
     93 H         -2.359245   -7.240279   -6.385662 H        1 UNL1     0.0233
     94 H         -4.159477   -8.766358   -5.901754 H        1 UNL1     0.0233
     95 H         -5.549775   -7.873089   -5.26656 H        1 UNL1     0.0233
     96 H         -5.655519   -8.670009   -6.853294 H        1 UNL1     0.0233
     97 H         3.315758   1.454061   -12.223459 H        1 UNL1     0.0280
     98 H         2.587906   2.570416   -11.100441 H        1 UNL1     0.0280
     99 H         4.177583   1.84227   -10.722999 H        1 UNL1     0.0280
     100 H         2.706999   -0.633713   -12.80376 H        1 UNL1     0.2922
     101 H         3.769434   -4.754498   -3.479519 H        1 UNL1     0.0236
     102 H         3.523468   -3.670304   -2.054708 H        1 UNL1     0.0236
     103 H         4.384492   -3.13115   -3.463057 H        1 UNL1     0.0236
     104 H         0.289166   -3.661028   -1.456105 H        1 UNL1     0.2098
     105 H         -0.338211   0.115998   -1.697924 H        1 UNL1     0.0234
     106 H         -0.727493   -1.337026   -0.734452 H        1 UNL1     0.0234
     107 H         -0.0   0.0   0.0 H        1 UNL1     0.0234
     108 H         2.781045   0.248105   -2.716229 H        1 UNL1     0.2098
     109 H         -0.390679   1.890836   -4.06356 H        1 UNL1     0.0234
     110 H         0.053625   0.608422   -2.892743 H        1 UNL1     0.0234
     111 H         -1.340413   1.594515   -2.622326 H        1 UNL1     0.0234
     112 H         -1.348412   3.862688   2.045968 H        1 UNL1     0.0342
     113 H         -1.10892   2.722977   3.417806 H        1 UNL1     0.0342
     114 H         0.274292   3.534743   2.67907 H        1 UNL1     0.0342
     115 H         2.956819   3.803424   -0.153279 H        1 UNL1     0.0234
     116 H         3.562286   2.843145   1.200257 H        1 UNL1     0.0234
     117 H         4.136714   2.6185   -0.46504 H        1 UNL1     0.0234
     118 H         0.570902   2.163718   -7.948146 H        1 UNL1     0.0309
     119 H         0.612656   2.324651   -6.164773 H        1 UNL1     0.0309
     120 H         1.512517   3.404849   -7.206684 H        1 UNL1     0.0309
     121 H         2.8017   1.255254   -2.087835 H        1 UNL1     0.0524
     122 H         4.449158   1.73793   -2.511821 H        1 UNL1     0.0524
     123 H         3.8296   2.063524   -0.873566 H        1 UNL1     0.0524
@<TRIPOS>BOND
     1     1     2    1
     2     1    42    1
     3     2     3    2
     4     3     4    1
     5     4     5    2
     6     5     7    1
     7     6    75    1
     8     6    76    1
     9     6    77    1
    10     7     9   am
    11     9    10    1
    12    10    11    2
    13    10    43    1
    14    11    14    1
    15    11    15    1
    16    12    13   ar
    17    12    27   ar
    18    12    43    1
    19    13    14    1
    20    13    30   ar
    21    14    17    2
    22    15    16    1
    23    16    17    1
    24    16    18    1
    25    16    22    1
    26    18    19    1
    27    19    20    1
    28    20    21    1
    29    21    22    1
    30    23    24    1
    31    23    88    1
    32    23    89    1
    33    24    25    1
    34    24    26    1
    35    24    90    1
    36    25    91    1
    37    25    92    1
    38    25    93    1
    39    26    94    1
    40    26    95    1
    41    26    96    1
    42    27    28   ar
    43    28    29   ar
    44    29    30   ar
    45    29    31    1
    46    30    33    1
    47    31    32    1
    48    32    33    1
    49    32    35    1
    50    34    97    1
    51    34    98    1
    52    34    99    1
    53    35    61    1
    54    36    37    1
    55    36    60    1
    56    37    38    1
    57    38    39    1
    58    39    40    1
    59    40    41    1
    60    41    42    1
    61    45   100    1
    62    47   101    1
    63    47   102    1
    64    47   103    1
    65    48   104    1
    66    49   105    1
    67    49   106    1
    68    49   107    1
    69    50   108    1
    70    51    59    1
    71    52   109    1
    72    52   110    1
    73    52   111    1
    74    53    54    1
    75    54    55    2
    76    54    56    1
    77    56   112    1
    78    56   113    1
    79    56   114    1
    80    57   115    1
    81    57   116    1
    82    57   117    1
    83    58   118    1
    84    58   119    1
    85    58   120    1
    86    59   121    1
    87    59   122    1
    88    59   123    1
    89    60    61    2
    90     1    47    1
    91     1    62    1
    92     2    63    1
    93     3    64    1
    94     4    65    1
    95     5     6    1
    96     7     8    2
    97     9    78    1
    98    15    79    1
    99    18    80    1
   100    18    81    1
   101    19    82    1
   102    19    83    1
   103    20    23    1
   104    21    84    1
   105    21    85    1
   106    22    86    1
   107    22    87    1
   108    27    45    1
   109    28    34    1
   110    32    58    1
   111    33    46    2
   112    36    51    1
   113    36    66    1
   114    37    52    1
   115    37    67    1
   116    38    53    1
   117    38    68    1
   118    42    48    1
   119    42    72    1
   120    43    44    2
   121    60    73    1
   122    61    74    1
   123    39    69    1
   124    39    57    1
   125    40    70    1
   126    40    50    1
   127    41    71    1
   128    41    49    1
