@<TRIPOS>MOLECULE
*****
 123 128 0 0 0
SMALL
GASTEIGER

@<TRIPOS>ATOM
     1 C         5.134229   1.832187   0.542713 C.3        1 UNL1     0.0009
     2 C         6.550838   2.69497   -0.285454 C.2        1 UNL1     -0.0787
     3 C         7.836936   2.645883   -0.94847 C.2        1 UNL1     -0.0649
     4 C         8.682467   3.920139   -1.674905 C.2        1 UNL1     -0.0542
     5 C         9.69692   4.260219   -2.60351 C.2        1 UNL1     0.0115
     6 C         10.844459   3.684182   -3.477958 C.3        1 UNL1     -0.0348
     7 C         9.753384   5.757937   -3.178526 C.2        1 UNL1     0.2441
     8 O         10.55328   6.5937   -2.780793 O.2        1 UNL1     -0.2702
     9 N         9.001315   5.968842   -4.347312 N.am        1 UNL1     -0.2772
     10 C         7.707535   6.31362   -4.030162 C.2        1 UNL1     0.1049
     11 C         6.887826   5.31352   -3.761647 C.2        1 UNL1     0.0801
     12 C         6.361312   7.85418   -2.590825 C.ar        1 UNL1     0.0753
     13 C         5.632118   6.696777   -2.16975 C.ar        1 UNL1     0.0305
     14 C         5.786762   5.408602   -2.841868 C.2        1 UNL1     0.0924
     15 N         7.047323   3.992027   -3.948043 N.pl3        1 UNL1     -0.3170
     16 C         5.793427   3.351883   -3.651036 C.3        1 UNL1     0.1275
     17 N         5.12811   4.268567   -2.653655 N.2        1 UNL1     -0.2557
     18 C         4.943107   3.414125   -4.916257 C.3        1 UNL1     0.0016
     19 C         5.719875   2.774785   -6.056198 C.3        1 UNL1     0.0026
     20 N         6.026536   1.39679   -5.698265 N.3        1 UNL1     -0.3018
     21 C         6.790251   1.231348   -4.459823 C.3        1 UNL1     0.0026
     22 C         5.989475   1.876619   -3.327446 C.3        1 UNL1     0.0016
     23 C         6.496704   0.613198   -6.82324 C.3        1 UNL1     0.0012
     24 C         5.351511   0.352887   -7.814465 C.3        1 UNL1     -0.0339
     25 C         5.700292   0.861549   -9.222894 C.3        1 UNL1     -0.0615
     26 C         4.997717   -1.124101   -7.825255 C.3        1 UNL1     -0.0615
     27 C         6.120335   9.104192   -2.025565 C.ar        1 UNL1     0.1347
     28 C         5.151346   9.327191   -1.063597 C.ar        1 UNL1     0.0342
     29 C         4.479767   8.16456   -0.629509 C.ar        1 UNL1     0.1435
     30 C         4.73581   6.899909   -1.160847 C.ar        1 UNL1     0.0774
     31 O         3.433477   8.231667   0.222419 O.3        1 UNL1     -0.4436
     32 C         2.746309   6.982825   0.051924 C.3        1 UNL1     0.3143
     33 C         3.788061   6.029198   -0.49722 C.2        1 UNL1     0.2504
     34 C         4.665885   10.67101   -0.596072 C.3        1 UNL1     -0.0327
     35 O         2.393807   6.508889   1.357443 O.2        1 UNL1     -0.4528
     36 C         -0.793823   4.497476   0.908757 C.3        1 UNL1     0.0854
     37 C         -1.061736   3.248127   -0.015836 C.3        1 UNL1     0.0236
     38 C         -1.629863   1.954867   0.74341 C.3        1 UNL1     0.1131
     39 C         -0.893751   1.416783   2.036034 C.3        1 UNL1     0.0200
     40 C         0.770676   1.315897   2.080118 C.3        1 UNL1     0.0661
     41 C         1.75429   0.598297   0.898947 C.3        1 UNL1     0.0091
     42 C         3.452988   1.019181   0.34878 C.3        1 UNL1     0.0661
     43 C         7.320071   7.696113   -3.712456 C.2        1 UNL1     0.2131
     44 O         7.697344   8.619675   -4.410622 O.2        1 UNL1     -0.2851
     45 O         6.905293   10.170523   -2.459405 O.3        1 UNL1     -0.5056
     46 O         3.836651   4.824071   -0.391564 O.2        1 UNL1     -0.2836
     47 C         5.537878   1.383625   1.973042 C.3        1 UNL1     -0.0566
     48 O         3.939827   -0.380533   0.402673 O.3        1 UNL1     -0.3909
     49 C         0.930538   0.36905   -0.348599 C.3        1 UNL1     -0.0577
     50 O         1.336067   2.541209   2.500435 O.3        1 UNL1     -0.3910
     51 O         -0.916859   4.275323   2.295458 O.3        1 UNL1     -0.3753
     52 C         -0.009803   3.140502   -1.167705 C.3        1 UNL1     -0.0564
     53 O         -2.201034   0.918901   -0.180095 O.3        1 UNL1     -0.4608
     54 C         -2.369097   -0.407652   0.119808 C.2        1 UNL1     0.3042
     55 O         -1.66745   -1.350436   -0.244455 O.2        1 UNL1     -0.2512
     56 C         -3.522418   -0.673653   1.044907 C.3        1 UNL1     0.0332
     57 C         -1.63665   2.039196   3.308385 C.3        1 UNL1     -0.0567
     58 C         1.668071   7.221111   -1.030736 C.3        1 UNL1     0.0210
     59 C         -1.264495   5.429534   3.05888 C.3        1 UNL1     0.0372
     60 C         0.518114   5.167372   0.696102 C.2        1 UNL1     -0.0208
     61 C         1.416148   5.609075   1.577678 C.2        1 UNL1     0.0882
     62 H         4.631243   2.800928   0.648813 H        1 UNL1     0.0365
     63 H         6.255482   3.738652   -0.159116 H        1 UNL1     0.0576
     64 H         8.321591   1.696762   -1.188023 H        1 UNL1     0.0615
     65 H         8.169427   4.814394   -1.31079 H        1 UNL1     0.0622
     66 H         -1.557724   5.229703   0.611527 H        1 UNL1     0.0645
     67 H         -1.933596   3.546461   -0.623633 H        1 UNL1     0.0362
     68 H         -2.58961   2.358204   1.100799 H        1 UNL1     0.0741
     69 H         -1.198014   0.393121   2.209084 H        1 UNL1     0.0359
     70 H         0.897861   0.640531   2.947738 H        1 UNL1     0.0600
     71 H         1.824568   -0.430026   1.304621 H        1 UNL1     0.0348
     72 H         3.330812   1.483651   1.338051 H        1 UNL1     0.0602
     73 H         0.633676   5.389472   -0.335676 H        1 UNL1     0.0628
     74 H         1.401165   5.375615   2.642812 H        1 UNL1     0.1022
     75 H         10.867976   2.569827   -3.409452 H        1 UNL1     0.0279
     76 H         10.768238   3.851422   -4.550008 H        1 UNL1     0.0279
     77 H         11.842275   3.945947   -3.096458 H        1 UNL1     0.0279
     78 H         8.964768   5.108722   -4.890392 H        1 UNL1     0.1553
     79 H         7.725932   3.595433   -4.571852 H        1 UNL1     0.1484
     80 H         3.995067   2.893122   -4.735861 H        1 UNL1     0.0317
     81 H         4.688976   4.449749   -5.16636 H        1 UNL1     0.0317
     82 H         6.636363   3.336424   -6.2897 H        1 UNL1     0.0428
     83 H         5.09613   2.831502   -6.948822 H        1 UNL1     0.0428
     84 H         6.938189   0.185822   -4.172072 H        1 UNL1     0.0428
     85 H         7.810173   1.62951   -4.552244 H        1 UNL1     0.0428
     86 H         6.509834   1.621483   -2.422947 H        1 UNL1     0.0317
     87 H         5.023121   1.369858   -3.215866 H        1 UNL1     0.0317
     88 H         7.279196   1.187501   -7.336247 H        1 UNL1     0.0429
     89 H         6.954009   -0.327542   -6.490593 H        1 UNL1     0.0429
     90 H         4.451174   0.874022   -7.468019 H        1 UNL1     0.0308
     91 H         6.710351   0.55985   -9.515915 H        1 UNL1     0.0233
     92 H         4.985735   0.483821   -9.957972 H        1 UNL1     0.0233
     93 H         5.661997   1.955358   -9.293253 H        1 UNL1     0.0233
     94 H         4.402414   -1.363412   -8.713051 H        1 UNL1     0.0233
     95 H         5.909806   -1.726553   -7.858518 H        1 UNL1     0.0233
     96 H         4.422523   -1.403146   -6.937982 H        1 UNL1     0.0233
     97 H         3.817605   10.586365   0.076598 H        1 UNL1     0.0280
     98 H         5.437325   11.219002   -0.039438 H        1 UNL1     0.0280
     99 H         4.358674   11.275298   -1.465297 H        1 UNL1     0.0280
     100 H         6.421144   10.941388   -2.698131 H        1 UNL1     0.2922
     101 H         4.659753   1.018912   2.505524 H        1 UNL1     0.0236
     102 H         6.063518   2.156797   2.532408 H        1 UNL1     0.0236
     103 H         6.231925   0.526733   1.957928 H        1 UNL1     0.0236
     104 H         4.27257   -0.542468   1.307123 H        1 UNL1     0.2098
     105 H         0.735775   1.267075   -0.929486 H        1 UNL1     0.0234
     106 H         1.296676   -0.42764   -0.996021 H        1 UNL1     0.0234
     107 H         0.0   -0.0   0.0 H        1 UNL1     0.0234
     108 H         1.176159   3.193   1.790952 H        1 UNL1     0.2098
     109 H         1.017721   3.059584   -0.786445 H        1 UNL1     0.0234
     110 H         -0.210586   2.314206   -1.858114 H        1 UNL1     0.0234
     111 H         -0.019482   4.031743   -1.809221 H        1 UNL1     0.0234
     112 H         -3.587837   -1.744592   1.259746 H        1 UNL1     0.0342
     113 H         -3.452029   -0.094313   1.964283 H        1 UNL1     0.0342
     114 H         -4.448132   -0.375563   0.533673 H        1 UNL1     0.0342
     115 H         -2.720305   1.860721   3.276356 H        1 UNL1     0.0234
     116 H         -1.269887   1.66204   4.265092 H        1 UNL1     0.0234
     117 H         -1.603167   3.141793   3.341564 H        1 UNL1     0.0234
     118 H         0.750999   7.67014   -0.610786 H        1 UNL1     0.0309
     119 H         2.02232   7.840399   -1.860912 H        1 UNL1     0.0309
     120 H         1.309803   6.288262   -1.47967 H        1 UNL1     0.0309
     121 H         -0.891382   5.279619   4.071633 H        1 UNL1     0.0524
     122 H         -0.797253   6.347658   2.665471 H        1 UNL1     0.0524
     123 H         -2.342805   5.560544   3.072243 H        1 UNL1     0.0524
@<TRIPOS>BOND
     1     1     2    1
     2     1    42    1
     3     2     3    2
     4     3     4    1
     5     4     5    2
     6     5     7    1
     7     6    75    1
     8     6    76    1
     9     6    77    1
    10     7     9   am
    11     9    10    1
    12    10    11    2
    13    10    43    1
    14    11    14    1
    15    11    15    1
    16    12    13   ar
    17    12    27   ar
    18    12    43    1
    19    13    14    1
    20    13    30   ar
    21    14    17    2
    22    15    16    1
    23    16    17    1
    24    16    18    1
    25    16    22    1
    26    18    19    1
    27    19    20    1
    28    20    21    1
    29    21    22    1
    30    23    24    1
    31    23    88    1
    32    23    89    1
    33    24    25    1
    34    24    26    1
    35    24    90    1
    36    25    91    1
    37    25    92    1
    38    25    93    1
    39    26    94    1
    40    26    95    1
    41    26    96    1
    42    27    28   ar
    43    28    29   ar
    44    29    30   ar
    45    29    31    1
    46    30    33    1
    47    31    32    1
    48    32    33    1
    49    32    35    1
    50    34    97    1
    51    34    98    1
    52    34    99    1
    53    35    61    1
    54    36    37    1
    55    36    60    1
    56    37    38    1
    57    38    39    1
    58    39    40    1
    59    40    41    1
    60    41    42    1
    61    45   100    1
    62    47   101    1
    63    47   102    1
    64    47   103    1
    65    48   104    1
    66    49   105    1
    67    49   106    1
    68    49   107    1
    69    50   108    1
    70    51    59    1
    71    52   109    1
    72    52   110    1
    73    52   111    1
    74    53    54    1
    75    54    55    2
    76    54    56    1
    77    56   112    1
    78    56   113    1
    79    56   114    1
    80    57   115    1
    81    57   116    1
    82    57   117    1
    83    58   118    1
    84    58   119    1
    85    58   120    1
    86    59   121    1
    87    59   122    1
    88    59   123    1
    89    60    61    2
    90     1    47    1
    91     1    62    1
    92     2    63    1
    93     3    64    1
    94     4    65    1
    95     5     6    1
    96     7     8    2
    97     9    78    1
    98    15    79    1
    99    18    80    1
   100    18    81    1
   101    19    82    1
   102    19    83    1
   103    20    23    1
   104    21    84    1
   105    21    85    1
   106    22    86    1
   107    22    87    1
   108    27    45    1
   109    28    34    1
   110    32    58    1
   111    33    46    2
   112    36    51    1
   113    36    66    1
   114    37    52    1
   115    37    67    1
   116    38    53    1
   117    38    68    1
   118    42    48    1
   119    42    72    1
   120    43    44    2
   121    60    73    1
   122    61    74    1
   123    39    69    1
   124    39    57    1
   125    40    70    1
   126    40    50    1
   127    41    71    1
   128    41    49    1
