@<TRIPOS>MOLECULE
*****
 123 128 0 0 0
SMALL
GASTEIGER

@<TRIPOS>ATOM
     1 C         -1.570667   2.27862   3.063692 C.3        1 UNL1     0.0009
     2 C         -3.349367   2.694751   3.380078 C.2        1 UNL1     -0.0787
     3 C         -4.474244   3.594251   3.233121 C.2        1 UNL1     -0.0649
     4 C         -6.079758   3.338505   3.705642 C.2        1 UNL1     -0.0542
     5 C         -7.424332   3.742363   3.515649 C.2        1 UNL1     0.0115
     6 C         -8.332688   4.815074   2.854207 C.3        1 UNL1     -0.0348
     7 C         -8.604108   2.769702   4.004576 C.2        1 UNL1     0.2441
     8 O         -9.23452   2.954835   5.036483 O.2        1 UNL1     -0.2702
     9 N         -9.039789   1.842312   3.042141 N.am        1 UNL1     -0.2772
     10 C         -8.286296   0.692822   3.107286 C.2        1 UNL1     0.1049
     11 C         -7.131751   0.716592   2.46644 C.2        1 UNL1     0.0801
     12 C         -7.405153   -1.013128   4.710613 C.ar        1 UNL1     0.0753
     13 C         -6.121929   -0.795468   4.115158 C.ar        1 UNL1     0.0305
     14 C         -5.970353   -0.019892   2.886111 C.2        1 UNL1     0.0924
     15 N         -6.653925   1.606893   1.580114 N.pl3        1 UNL1     -0.3170
     16 C         -5.42356   1.08212   1.049952 C.3        1 UNL1     0.1275
     17 N         -4.885341   0.198217   2.148478 N.2        1 UNL1     -0.2557
     18 C         -5.788409   0.151017   -0.102279 C.3        1 UNL1     0.0016
     19 C         -6.625179   0.926089   -1.107598 C.3        1 UNL1     0.0026
     20 N         -5.851661   2.066077   -1.579959 N.3        1 UNL1     -0.3018
     21 C         -5.401499   2.987892   -0.534981 C.3        1 UNL1     0.0026
     22 C         -4.559133   2.189259   0.461262 C.3        1 UNL1     0.0016
     23 C         -6.430966   2.694611   -2.750427 C.3        1 UNL1     0.0012
     24 C         -6.224177   1.81384   -3.992698 C.3        1 UNL1     -0.0339
     25 C         -6.021597   2.664197   -5.257573 C.3        1 UNL1     -0.0615
     26 C         -5.063154   0.86079   -3.767969 C.3        1 UNL1     -0.0615
     27 C         -7.556777   -1.852211   5.812007 C.ar        1 UNL1     0.1347
     28 C         -6.509295   -2.556397   6.378534 C.ar        1 UNL1     0.0342
     29 C         -5.247479   -2.288622   5.806451 C.ar        1 UNL1     0.1435
     30 C         -5.074969   -1.422678   4.725894 C.ar        1 UNL1     0.0774
     31 O         -4.145944   -2.978492   6.174835 O.3        1 UNL1     -0.4436
     32 C         -3.218423   -2.783411   5.096632 C.3        1 UNL1     0.3143
     33 C         -3.662026   -1.502517   4.41933 C.2        1 UNL1     0.2504
     34 C         -6.6346   -3.659545   7.392173 C.3        1 UNL1     -0.0327
     35 O         -1.935539   -2.524215   5.679964 O.2        1 UNL1     -0.4528
     36 C         0.619662   -3.850147   3.20591 C.3        1 UNL1     0.0854
     37 C         0.827248   -3.471759   1.688922 C.3        1 UNL1     0.0236
     38 C         2.307323   -2.984037   1.310437 C.3        1 UNL1     0.1131
     39 C         3.00163   -1.847298   2.163685 C.3        1 UNL1     0.0200
     40 C         2.144126   -0.491961   2.622145 C.3        1 UNL1     0.0661
     41 C         1.205003   0.4827   1.599552 C.3        1 UNL1     0.0091
     42 C         -0.324499   1.436859   1.939564 C.3        1 UNL1     0.0661
     43 C         -8.583088   -0.386079   4.061351 C.2        1 UNL1     0.2131
     44 O         -9.724096   -0.785496   4.207309 O.2        1 UNL1     -0.2851
     45 O         -8.832259   -1.97391   6.359522 O.3        1 UNL1     -0.5056
     46 O         -2.994812   -0.713943   3.787798 O.2        1 UNL1     -0.2836
     47 C         -0.647151   3.129916   3.976048 C.3        1 UNL1     -0.0566
     48 O         0.163663   2.672417   1.280616 O.3        1 UNL1     -0.3909
     49 C         0.988128   -0.247694   0.293036 C.3        1 UNL1     -0.0577
     50 O         1.457787   -0.720164   3.83647 O.3        1 UNL1     -0.3910
     51 O         1.694326   -3.551292   4.068009 O.3        1 UNL1     -0.3753
     52 C         -0.448848   -2.808986   1.074706 C.3        1 UNL1     -0.0564
     53 O         2.575573   -2.969218   -0.166095 O.3        1 UNL1     -0.4608
     54 C         3.324114   -2.032017   -0.82887 C.2        1 UNL1     0.3042
     55 O         2.913064   -1.086121   -1.499807 O.2        1 UNL1     -0.2512
     56 C         4.804403   -2.196198   -0.632649 C.3        1 UNL1     0.0332
     57 C         3.913072   -2.561192   3.267226 C.3        1 UNL1     -0.0567
     58 C         -3.429217   -3.963312   4.119426 C.3        1 UNL1     0.0210
     59 C         2.426534   -4.685946   4.528766 C.3        1 UNL1     0.0372
     60 C         -0.604772   -3.282828   3.833662 C.2        1 UNL1     -0.0208
     61 C         -0.775093   -2.692348   5.017329 C.2        1 UNL1     0.0882
     62 H         -1.722911   1.322004   3.57791 H        1 UNL1     0.0365
     63 H         -3.644647   1.856849   4.015058 H        1 UNL1     0.0576
     64 H         -4.4075   4.499863   2.626063 H        1 UNL1     0.0615
     65 H         -6.022041   2.467531   4.364092 H        1 UNL1     0.0622
     66 H         0.478725   -4.940177   3.201705 H        1 UNL1     0.0645
     67 H         0.773574   -4.439929   1.161357 H        1 UNL1     0.0362
     68 H         2.867877   -3.903481   1.538307 H        1 UNL1     0.0741
     69 H         3.816612   -1.42885   1.58826 H        1 UNL1     0.0359
     70 H         2.9804   0.178236   2.898808 H        1 UNL1     0.0600
     71 H         1.960533   1.236799   1.303807 H        1 UNL1     0.0348
     72 H         0.137547   1.245466   2.918951 H        1 UNL1     0.0602
     73 H         -1.447462   -3.521108   3.233375 H        1 UNL1     0.0628
     74 H         0.03821   -2.363238   5.664988 H        1 UNL1     0.1022
     75 H         -7.949583   5.841236   3.071593 H        1 UNL1     0.0279
     76 H         -8.379614   4.807864   1.767554 H        1 UNL1     0.0279
     77 H         -9.335744   4.858487   3.303312 H        1 UNL1     0.0279
     78 H         -8.920281   2.234539   2.110502 H        1 UNL1     0.1553
     79 H         -7.230449   2.255266   1.075966 H        1 UNL1     0.1484
     80 H         -4.86725   -0.231546   -0.558216 H        1 UNL1     0.0317
     81 H         -6.344276   -0.720483   0.259868 H        1 UNL1     0.0317
     82 H         -7.583762   1.249695   -0.675961 H        1 UNL1     0.0428
     83 H         -6.875806   0.243003   -1.919775 H        1 UNL1     0.0428
     84 H         -4.756462   3.790394   -0.906099 H        1 UNL1     0.0428
     85 H         -6.242838   3.51697   -0.066428 H        1 UNL1     0.0428
     86 H         -4.139404   2.915097   1.132809 H        1 UNL1     0.0317
     87 H         -3.679213   1.771047   -0.042659 H        1 UNL1     0.0317
     88 H         -7.509254   2.808646   -2.57842 H        1 UNL1     0.0429
     89 H         -6.021905   3.701189   -2.906133 H        1 UNL1     0.0429
     90 H         -7.108007   1.180828   -4.135359 H        1 UNL1     0.0308
     91 H         -5.309932   3.47629   -5.081105 H        1 UNL1     0.0233
     92 H         -5.663439   2.046897   -6.084781 H        1 UNL1     0.0233
     93 H         -6.95371   3.127509   -5.603033 H        1 UNL1     0.0233
     94 H         -4.662515   0.520351   -4.72892 H        1 UNL1     0.0233
     95 H         -4.259676   1.371131   -3.229513 H        1 UNL1     0.0233
     96 H         -5.372392   -0.016122   -3.192325 H        1 UNL1     0.0233
     97 H         -6.196507   -4.588529   7.039619 H        1 UNL1     0.0280
     98 H         -6.117092   -3.420241   8.33035 H        1 UNL1     0.0280
     99 H         -7.699747   -3.8408   7.610583 H        1 UNL1     0.0280
     100 H         -9.267815   -1.155882   6.523059 H        1 UNL1     0.2922
     101 H         -0.263196   2.513227   4.788409 H        1 UNL1     0.0236
     102 H         -1.125386   4.03765   4.342509 H        1 UNL1     0.0236
     103 H         0.251775   3.481555   3.442685 H        1 UNL1     0.0236
     104 H         0.472667   3.278488   1.982161 H        1 UNL1     0.2098
     105 H         1.658376   0.055242   -0.507469 H        1 UNL1     0.0234
     106 H         0.966573   -1.334173   0.376856 H        1 UNL1     0.0234
     107 H         0.0   0.0   0.0 H        1 UNL1     0.0234
     108 H         2.098876   -0.588166   4.56128 H        1 UNL1     0.2098
     109 H         -1.321   -3.476828   1.107088 H        1 UNL1     0.0234
     110 H         -0.703271   -1.851163   1.541167 H        1 UNL1     0.0234
     111 H         -0.304975   -2.559143   0.015071 H        1 UNL1     0.0234
     112 H         5.340638   -1.407244   -1.168698 H        1 UNL1     0.0342
     113 H         5.078947   -2.208751   0.421064 H        1 UNL1     0.0342
     114 H         5.103051   -3.160678   -1.065955 H        1 UNL1     0.0342
     115 H         4.851016   -2.014981   3.437827 H        1 UNL1     0.0234
     116 H         3.423722   -2.683816   4.235497 H        1 UNL1     0.0234
     117 H         4.295106   -3.547221   2.951415 H        1 UNL1     0.0234
     118 H         -2.572528   -4.659797   4.119469 H        1 UNL1     0.0309
     119 H         -4.347707   -4.525314   4.31623 H        1 UNL1     0.0309
     120 H         -3.490459   -3.638339   3.075037 H        1 UNL1     0.0309
     121 H         2.883141   -4.419016   5.481454 H        1 UNL1     0.0524
     122 H         1.777087   -5.559536   4.705106 H        1 UNL1     0.0524
     123 H         3.193296   -4.956338   3.808308 H        1 UNL1     0.0524
@<TRIPOS>BOND
     1     1     2    1
     2     1    42    1
     3     2     3    2
     4     3     4    1
     5     4     5    2
     6     5     7    1
     7     6    75    1
     8     6    76    1
     9     6    77    1
    10     7     9   am
    11     9    10    1
    12    10    11    2
    13    10    43    1
    14    11    14    1
    15    11    15    1
    16    12    13   ar
    17    12    27   ar
    18    12    43    1
    19    13    14    1
    20    13    30   ar
    21    14    17    2
    22    15    16    1
    23    16    17    1
    24    16    18    1
    25    16    22    1
    26    18    19    1
    27    19    20    1
    28    20    21    1
    29    21    22    1
    30    23    24    1
    31    23    88    1
    32    23    89    1
    33    24    25    1
    34    24    26    1
    35    24    90    1
    36    25    91    1
    37    25    92    1
    38    25    93    1
    39    26    94    1
    40    26    95    1
    41    26    96    1
    42    27    28   ar
    43    28    29   ar
    44    29    30   ar
    45    29    31    1
    46    30    33    1
    47    31    32    1
    48    32    33    1
    49    32    35    1
    50    34    97    1
    51    34    98    1
    52    34    99    1
    53    35    61    1
    54    36    37    1
    55    36    60    1
    56    37    38    1
    57    38    39    1
    58    39    40    1
    59    40    41    1
    60    41    42    1
    61    45   100    1
    62    47   101    1
    63    47   102    1
    64    47   103    1
    65    48   104    1
    66    49   105    1
    67    49   106    1
    68    49   107    1
    69    50   108    1
    70    51    59    1
    71    52   109    1
    72    52   110    1
    73    52   111    1
    74    53    54    1
    75    54    55    2
    76    54    56    1
    77    56   112    1
    78    56   113    1
    79    56   114    1
    80    57   115    1
    81    57   116    1
    82    57   117    1
    83    58   118    1
    84    58   119    1
    85    58   120    1
    86    59   121    1
    87    59   122    1
    88    59   123    1
    89    60    61    2
    90     1    47    1
    91     1    62    1
    92     2    63    1
    93     3    64    1
    94     4    65    1
    95     5     6    1
    96     7     8    2
    97     9    78    1
    98    15    79    1
    99    18    80    1
   100    18    81    1
   101    19    82    1
   102    19    83    1
   103    20    23    1
   104    21    84    1
   105    21    85    1
   106    22    86    1
   107    22    87    1
   108    27    45    1
   109    28    34    1
   110    32    58    1
   111    33    46    2
   112    36    51    1
   113    36    66    1
   114    37    52    1
   115    37    67    1
   116    38    53    1
   117    38    68    1
   118    42    48    1
   119    42    72    1
   120    43    44    2
   121    60    73    1
   122    61    74    1
   123    39    69    1
   124    39    57    1
   125    40    70    1
   126    40    50    1
   127    41    71    1
   128    41    49    1
