@<TRIPOS>MOLECULE
*****
 123 128 0 0 0
SMALL
GASTEIGER

@<TRIPOS>ATOM
     1 C         2.374383   1.667244   3.090891 C.3        1 UNL1     0.0009
     2 C         1.792233   2.553141   4.611853 C.2        1 UNL1     -0.0787
     3 C         1.599103   3.781408   5.353546 C.2        1 UNL1     -0.0649
     4 C         0.809395   3.988124   6.836781 C.2        1 UNL1     -0.0542
     5 C         0.174939   4.920428   7.694308 C.2        1 UNL1     0.0115
     6 C         -0.089399   6.432956   7.93033 C.3        1 UNL1     -0.0348
     7 C         -0.785958   4.37561   8.859142 C.2        1 UNL1     0.2441
     8 O         -0.440797   4.3117   10.031023 O.2        1 UNL1     -0.2702
     9 N         -2.133211   4.222878   8.488015 N.am        1 UNL1     -0.2772
     10 C         -2.345125   2.973136   7.952703 C.2        1 UNL1     0.1049
     11 C         -2.044797   2.828781   6.674741 C.2        1 UNL1     0.0801
     12 C         -1.927114   0.541597   8.365283 C.ar        1 UNL1     0.0753
     13 C         -1.41346   0.483759   7.030584 C.ar        1 UNL1     0.0305
     14 C         -1.577997   1.596947   6.098495 C.2        1 UNL1     0.0924
     15 N         -1.759411   3.755887   5.744388 N.pl3        1 UNL1     -0.3170
     16 C         -1.675413   3.089927   4.471715 C.3        1 UNL1     0.1275
     17 N         -1.258372   1.679504   4.810104 N.2        1 UNL1     -0.2557
     18 C         -3.093884   2.990963   3.91868 C.3        1 UNL1     0.0016
     19 C         -3.690787   4.387965   3.858021 C.3        1 UNL1     0.0026
     20 N         -2.852337   5.21823   3.004387 N.3        1 UNL1     -0.3018
     21 C         -1.452648   5.324195   3.421532 C.3        1 UNL1     0.0026
     22 C         -0.871669   3.910021   3.47122 C.3        1 UNL1     0.0016
     23 C         -3.484485   6.470275   2.639127 C.3        1 UNL1     0.0012
     24 C         -5.01013   6.368499   2.793419 C.3        1 UNL1     -0.0339
     25 C         -5.431401   4.985573   3.316968 C.3        1 UNL1     -0.0615
     26 C         -5.518493   7.484214   3.689815 C.3        1 UNL1     -0.0615
     27 C         -1.873468   -0.566198   9.207916 C.ar        1 UNL1     0.1347
     28 C         -1.367774   -1.792932   8.81619 C.ar        1 UNL1     0.0342
     29 C         -0.823303   -1.81236   7.514523 C.ar        1 UNL1     0.1435
     30 C         -0.837287   -0.700224   6.671802 C.ar        1 UNL1     0.0774
     31 O         -0.392534   -2.960548   6.947857 O.3        1 UNL1     -0.4436
     32 C         -0.371832   -2.684291   5.539267 C.3        1 UNL1     0.3143
     33 C         -0.258976   -1.176927   5.432819 C.2        1 UNL1     0.2504
     34 C         -1.50521   -3.085266   9.57189 C.3        1 UNL1     -0.0327
     35 O         0.844468   -3.231726   5.015646 O.2        1 UNL1     -0.4528
     36 C         0.089717   -4.195968   1.422781 C.3        1 UNL1     0.0854
     37 C         -0.442657   -3.297498   0.240897 C.3        1 UNL1     0.0236
     38 C         0.466607   -3.309917   -1.080023 C.3        1 UNL1     0.1131
     39 C         2.021067   -3.039991   -0.965735 C.3        1 UNL1     0.0200
     40 C         2.596519   -1.81606   0.010629 C.3        1 UNL1     0.0661
     41 C         2.04914   -0.210467   0.01814 C.3        1 UNL1     0.0091
     42 C         1.938847   1.002794   1.389722 C.3        1 UNL1     0.0661
     43 C         -2.599873   1.793377   8.792719 C.2        1 UNL1     0.2131
     44 O         -3.39855   1.848762   9.710208 O.2        1 UNL1     -0.2851
     45 O         -2.353805   -0.412578   10.506806 O.3        1 UNL1     -0.5056
     46 O         0.220595   -0.518584   4.537024 O.2        1 UNL1     -0.2836
     47 C         3.924817   1.591437   3.071161 C.3        1 UNL1     -0.0566
     48 O         2.564281   2.103812   0.6179 O.3        1 UNL1     -0.3909
     49 C         0.744047   -0.136256   -0.742596 C.3        1 UNL1     -0.0577
     50 O         2.771501   -2.273088   1.336612 O.3        1 UNL1     -0.3910
     51 O         1.371649   -4.754317   1.242981 O.3        1 UNL1     -0.3753
     52 C         -1.129909   -1.994328   0.764713 C.3        1 UNL1     -0.0564
     53 O         -0.222178   -2.746595   -2.288563 O.3        1 UNL1     -0.4608
     54 C         0.404181   -2.25853   -3.405433 C.2        1 UNL1     0.3042
     55 O         0.712495   -2.881036   -4.420946 O.2        1 UNL1     -0.2512
     56 C         0.66947   -0.780986   -3.348876 C.3        1 UNL1     0.0332
     57 C         2.752896   -4.460159   -0.890095 C.3        1 UNL1     -0.0567
     58 C         -1.748685   -3.121683   4.987458 C.3        1 UNL1     0.0210
     59 C         1.648606   -5.893655   2.056044 C.3        1 UNL1     0.0372
     60 C         0.090302   -3.541267   2.759391 C.2        1 UNL1     -0.0208
     61 C         1.02259   -3.523695   3.712951 C.2        1 UNL1     0.0882
     62 H         2.020547   0.725415   3.527317 H        1 UNL1     0.0365
     63 H         1.496643   1.709093   5.238494 H        1 UNL1     0.0576
     64 H         1.820959   4.756435   4.91399 H        1 UNL1     0.0615
     65 H         0.708138   2.969961   7.222236 H        1 UNL1     0.0622
     66 H         -0.634621   -5.019808   1.491108 H        1 UNL1     0.0645
     67 H         -1.3469   -3.824451   -0.110137 H        1 UNL1     0.0362
     68 H         0.374338   -4.371218   -1.356876 H        1 UNL1     0.0741
     69 H         2.398801   -2.762841   -1.940883 H        1 UNL1     0.0359
     70 H         3.624961   -1.722092   -0.387538 H        1 UNL1     0.0600
     71 H         2.751763   0.2367   -0.712147 H        1 UNL1     0.0348
     72 H         2.651937   0.234147   1.721385 H        1 UNL1     0.0602
     73 H         -0.873656   -3.140234   2.952277 H        1 UNL1     0.0628
     74 H         2.050627   -3.860991   3.576539 H        1 UNL1     0.1022
     75 H         -1.133158   6.699135   7.635796 H        1 UNL1     0.0279
     76 H         -0.041217   6.77891   8.960409 H        1 UNL1     0.0279
     77 H         0.496445   7.076999   7.258246 H        1 UNL1     0.0279
     78 H         -2.370552   4.906863   7.772535 H        1 UNL1     0.1553
     79 H         -1.994839   4.72709   5.835335 H        1 UNL1     0.1484
     80 H         -3.058874   2.526904   2.925609 H        1 UNL1     0.0317
     81 H         -3.714139   2.342015   4.546216 H        1 UNL1     0.0317
     82 H         -3.795739   4.829715   4.859896 H        1 UNL1     0.0428
     83 H         -4.702684   4.29404   3.462683 H        1 UNL1     0.0428
     84 H         -0.827593   5.886794   2.721104 H        1 UNL1     0.0428
     85 H         -1.34882   5.870017   4.369486 H        1 UNL1     0.0428
     86 H         0.18043   4.035282   3.64838 H        1 UNL1     0.0317
     87 H         -0.908667   3.454474   2.474123 H        1 UNL1     0.0317
     88 H         -3.115757   7.249965   3.318405 H        1 UNL1     0.0429
     89 H         -3.208834   6.774043   1.621033 H        1 UNL1     0.0429
     90 H         -5.48152   6.5306   1.81683 H        1 UNL1     0.0308
     91 H         -6.09273   4.476874   2.609174 H        1 UNL1     0.0233
     92 H         -4.555473   4.359617   3.502809 H        1 UNL1     0.0233
     93 H         -5.971442   5.046407   4.269591 H        1 UNL1     0.0233
     94 H         -6.548559   7.743766   3.422545 H        1 UNL1     0.0233
     95 H         -5.513226   7.156899   4.733271 H        1 UNL1     0.0233
     96 H         -4.901035   8.382191   3.598425 H        1 UNL1     0.0233
     97 H         -0.906412   -3.093219   10.477765 H        1 UNL1     0.0280
     98 H         -2.538793   -3.268846   9.893234 H        1 UNL1     0.0280
     99 H         -1.177837   -3.922457   8.933899 H        1 UNL1     0.0280
     100 H         -3.283262   -0.278092   10.567179 H        1 UNL1     0.2922
     101 H         4.271974   0.951386   3.882008 H        1 UNL1     0.0236
     102 H         4.402127   2.570621   3.090049 H        1 UNL1     0.0236
     103 H         4.304335   1.111469   2.15367 H        1 UNL1     0.0236
     104 H         2.676856   1.792574   -0.301572 H        1 UNL1     0.2098
     105 H         0.676365   0.696486   -1.438133 H        1 UNL1     0.0234
     106 H         0.449963   -1.063662   -1.23388 H        1 UNL1     0.0234
     107 H         -0.0   0.0   0.0 H        1 UNL1     0.0234
     108 H         3.140284   -1.530745   1.853036 H        1 UNL1     0.2098
     109 H         -0.446097   -1.374321   1.361122 H        1 UNL1     0.0234
     110 H         -1.570451   -1.388896   -0.034735 H        1 UNL1     0.0234
     111 H         -1.977691   -2.221148   1.424839 H        1 UNL1     0.0234
     112 H         0.189536   -0.350277   -2.464852 H        1 UNL1     0.0342
     113 H         1.734676   -0.555271   -3.364163 H        1 UNL1     0.0342
     114 H         0.218148   -0.317137   -4.236748 H        1 UNL1     0.0342
     115 H         3.731146   -4.442635   -1.390005 H        1 UNL1     0.0234
     116 H         2.910341   -4.824838   0.126896 H        1 UNL1     0.0234
     117 H         2.236651   -5.251967   -1.45972 H        1 UNL1     0.0234
     118 H         -1.688856   -4.073017   4.430331 H        1 UNL1     0.0309
     119 H         -2.514805   -3.209196   5.764378 H        1 UNL1     0.0309
     120 H         -2.146893   -2.419759   4.246622 H        1 UNL1     0.0309
     121 H         0.704391   -6.232407   2.481557 H        1 UNL1     0.0524
     122 H         2.069717   -6.730428   1.474225 H        1 UNL1     0.0524
     123 H         2.343614   -5.630063   2.848241 H        1 UNL1     0.0524
@<TRIPOS>BOND
     1     1     2    1
     2     1    42    1
     3     2     3    2
     4     3     4    1
     5     4     5    2
     6     5     7    1
     7     6    75    1
     8     6    76    1
     9     6    77    1
    10     7     9   am
    11     9    10    1
    12    10    11    2
    13    10    43    1
    14    11    14    1
    15    11    15    1
    16    12    13   ar
    17    12    27   ar
    18    12    43    1
    19    13    14    1
    20    13    30   ar
    21    14    17    2
    22    15    16    1
    23    16    17    1
    24    16    18    1
    25    16    22    1
    26    18    19    1
    27    19    20    1
    28    20    21    1
    29    21    22    1
    30    23    24    1
    31    23    88    1
    32    23    89    1
    33    24    25    1
    34    24    26    1
    35    24    90    1
    36    25    91    1
    37    25    92    1
    38    25    93    1
    39    26    94    1
    40    26    95    1
    41    26    96    1
    42    27    28   ar
    43    28    29   ar
    44    29    30   ar
    45    29    31    1
    46    30    33    1
    47    31    32    1
    48    32    33    1
    49    32    35    1
    50    34    97    1
    51    34    98    1
    52    34    99    1
    53    35    61    1
    54    36    37    1
    55    36    60    1
    56    37    38    1
    57    38    39    1
    58    39    40    1
    59    40    41    1
    60    41    42    1
    61    45   100    1
    62    47   101    1
    63    47   102    1
    64    47   103    1
    65    48   104    1
    66    49   105    1
    67    49   106    1
    68    49   107    1
    69    50   108    1
    70    51    59    1
    71    52   109    1
    72    52   110    1
    73    52   111    1
    74    53    54    1
    75    54    55    2
    76    54    56    1
    77    56   112    1
    78    56   113    1
    79    56   114    1
    80    57   115    1
    81    57   116    1
    82    57   117    1
    83    58   118    1
    84    58   119    1
    85    58   120    1
    86    59   121    1
    87    59   122    1
    88    59   123    1
    89    60    61    2
    90     1    47    1
    91     1    62    1
    92     2    63    1
    93     3    64    1
    94     4    65    1
    95     5     6    1
    96     7     8    2
    97     9    78    1
    98    15    79    1
    99    18    80    1
   100    18    81    1
   101    19    82    1
   102    19    83    1
   103    20    23    1
   104    21    84    1
   105    21    85    1
   106    22    86    1
   107    22    87    1
   108    27    45    1
   109    28    34    1
   110    32    58    1
   111    33    46    2
   112    36    51    1
   113    36    66    1
   114    37    52    1
   115    37    67    1
   116    38    53    1
   117    38    68    1
   118    42    48    1
   119    42    72    1
   120    43    44    2
   121    60    73    1
   122    61    74    1
   123    39    69    1
   124    39    57    1
   125    40    70    1
   126    40    50    1
   127    41    71    1
   128    41    49    1
