@<TRIPOS>MOLECULE
*****
 123 128 0 0 0
SMALL
GASTEIGER

@<TRIPOS>ATOM
     1 C         5.081345   1.91811   0.707372 C.3        1 UNL1     0.0009
     2 C         6.51894   2.786542   -0.077601 C.2        1 UNL1     -0.0787
     3 C         7.826974   2.743111   -0.696638 C.2        1 UNL1     -0.0649
     4 C         8.687494   4.01942   -1.401548 C.2        1 UNL1     -0.0542
     5 C         9.73025   4.361697   -2.297419 C.2        1 UNL1     0.0115
     6 C         10.910658   3.789161   -3.129382 C.3        1 UNL1     -0.0348
     7 C         9.795488   5.856574   -2.878862 C.2        1 UNL1     0.2441
     8 O         10.575597   6.70031   -2.459261 O.2        1 UNL1     -0.2702
     9 N         9.08178   6.055535   -4.073511 N.am        1 UNL1     -0.2772
     10 C         7.775641   6.392672   -3.802106 C.2        1 UNL1     0.1049
     11 C         6.954429   5.388156   -3.555565 C.2        1 UNL1     0.0801
     12 C         6.370809   7.931381   -2.417854 C.ar        1 UNL1     0.0753
     13 C         5.636027   6.771072   -2.014883 C.ar        1 UNL1     0.0305
     14 C         5.822337   5.480346   -2.673949 C.2        1 UNL1     0.0924
     15 N         7.12945   4.066842   -3.728837 N.pl3        1 UNL1     -0.3170
     16 C         5.870806   3.419275   -3.470522 C.3        1 UNL1     0.1275
     17 N         5.165783   4.336624   -2.501431 N.2        1 UNL1     -0.2557
     18 C         5.063206   3.468332   -4.763998 C.3        1 UNL1     0.0016
     19 C         5.882461   2.828334   -5.873418 C.3        1 UNL1     0.0026
     20 N         6.186605   1.454605   -5.497396 N.3        1 UNL1     -0.3018
     21 C         6.909283   1.301576   -4.233003 C.3        1 UNL1     0.0026
     22 C         6.066248   1.947289   -3.131985 C.3        1 UNL1     0.0016
     23 C         6.699956   0.668219   -6.601349 C.3        1 UNL1     0.0012
     24 C         5.589636   0.390408   -7.626905 C.3        1 UNL1     -0.0339
     25 C         5.612733   1.415793   -8.772378 C.3        1 UNL1     -0.0615
     26 C         5.705339   -1.031762   -8.147313 C.3        1 UNL1     -0.0615
     27 C         6.102089   9.182727   -1.86827 C.ar        1 UNL1     0.1347
     28 C         5.099668   9.404021   -0.940783 C.ar        1 UNL1     0.0342
     29 C         4.422065   8.238973   -0.522836 C.ar        1 UNL1     0.1435
     30 C         4.704802   6.973286   -1.037927 C.ar        1 UNL1     0.0774
     31 O         3.3472   8.30321   0.292973 O.3        1 UNL1     -0.4436
     32 C         2.675009   7.048491   0.106664 C.3        1 UNL1     0.3143
     33 C         3.741392   6.099416   -0.401564 C.2        1 UNL1     0.2504
     34 C         4.589242   10.746854   -0.497652 C.3        1 UNL1     -0.0327
     35 O         2.282049   6.579255   1.402292 O.2        1 UNL1     -0.4528
     36 C         -0.874355   4.542315   0.858166 C.3        1 UNL1     0.0854
     37 C         -1.102113   3.285949   -0.067681 C.3        1 UNL1     0.0236
     38 C         -1.686366   1.992831   0.679473 C.3        1 UNL1     0.1131
     39 C         -0.99047   1.467275   1.999241 C.3        1 UNL1     0.0200
     40 C         0.672196   1.378712   2.099931 C.3        1 UNL1     0.0661
     41 C         1.700116   0.661728   0.956723 C.3        1 UNL1     0.0091
     42 C         3.413382   1.091868   0.461643 C.3        1 UNL1     0.0661
     43 C         7.36793   7.774058   -3.505631 C.2        1 UNL1     0.2131
     44 O         7.761994   8.696447   -4.196028 O.2        1 UNL1     -0.2851
     45 O         6.893676   10.252303   -2.281593 O.3        1 UNL1     -0.5056
     46 O         3.794903   4.895278   -0.287361 O.2        1 UNL1     -0.2836
     47 C         5.439701   1.480424   2.153053 C.3        1 UNL1     -0.0566
     48 O         3.908001   -0.303958   0.539995 O.3        1 UNL1     -0.3909
     49 C         0.920532   0.419599   -0.316508 C.3        1 UNL1     -0.0577
     50 O         1.214427   2.610404   2.531953 O.3        1 UNL1     -0.3910
     51 O         -1.042501   4.326967   2.2412 O.3        1 UNL1     -0.3753
     52 C         -0.01121   3.179573   -1.182833 C.3        1 UNL1     -0.0564
     53 O         -2.218746   0.947645   -0.256734 O.3        1 UNL1     -0.4608
     54 C         -2.406962   -0.374284   0.0515 C.2        1 UNL1     0.3042
     55 O         -1.784236   -1.339827   -0.388702 O.2        1 UNL1     -0.2512
     56 C         -3.468229   -0.604593   1.089471 C.3        1 UNL1     0.0332
     57 C         -1.78022   2.091327   3.242233 C.3        1 UNL1     -0.0567
     58 C         1.632228   7.272943   -1.01305 C.3        1 UNL1     0.0210
     59 C         -1.461946   5.473502   2.979703 C.3        1 UNL1     0.0372
     60 C         0.43924   5.220521   0.685937 C.2        1 UNL1     -0.0208
     61 C         1.303901   5.673607   1.594683 C.2        1 UNL1     0.0882
     62 H         4.568237   2.883751   0.790869 H        1 UNL1     0.0365
     63 H         6.212128   3.828739   0.032681 H        1 UNL1     0.0576
     64 H         8.326122   1.796217   -0.914241 H        1 UNL1     0.0615
     65 H         8.156166   4.911935   -1.060095 H        1 UNL1     0.0622
     66 H         -1.632954   5.267323   0.531151 H        1 UNL1     0.0645
     67 H         -1.955072   3.574576   -0.706208 H        1 UNL1     0.0362
     68 H         -2.660441   2.39117   1.002002 H        1 UNL1     0.0741
     69 H         -1.293156   0.442407   2.167868 H        1 UNL1     0.0359
     70 H         0.774824   0.709106   2.975234 H        1 UNL1     0.0600
     71 H         1.76394   -0.363793   1.370475 H        1 UNL1     0.0348
     72 H         3.254646   1.560916   1.443535 H        1 UNL1     0.0602
     73 H         0.587951   5.43773   -0.342632 H        1 UNL1     0.0628
     74 H         1.254666   5.445954   2.660041 H        1 UNL1     0.1022
     75 H         10.988352   2.683851   -2.990496 H        1 UNL1     0.0279
     76 H         10.833698   3.884624   -4.210138 H        1 UNL1     0.0279
     77 H         11.891781   4.123392   -2.761432 H        1 UNL1     0.0279
     78 H         9.069639   5.192175   -4.612528 H        1 UNL1     0.1553
     79 H         7.831488   3.671729   -4.327135 H        1 UNL1     0.1484
     80 H         4.113327   2.941474   -4.612617 H        1 UNL1     0.0317
     81 H         4.810343   4.500683   -5.028503 H        1 UNL1     0.0317
     82 H         6.80231   3.395303   -6.079172 H        1 UNL1     0.0428
     83 H         5.28878   2.875575   -6.786852 H        1 UNL1     0.0428
     84 H         7.054817   0.258762   -3.93439 H        1 UNL1     0.0428
     85 H         7.928904   1.706607   -4.293329 H        1 UNL1     0.0428
     86 H         6.557606   1.700952   -2.209016 H        1 UNL1     0.0317
     87 H         5.100285   1.434157   -3.050079 H        1 UNL1     0.0317
     88 H         7.493056   1.246654   -7.092979 H        1 UNL1     0.0429
     89 H         7.155193   -0.265875   -6.247794 H        1 UNL1     0.0429
     90 H         4.615787   0.447897   -7.126379 H        1 UNL1     0.0308
     91 H         6.580445   1.42009   -9.282883 H        1 UNL1     0.0233
     92 H         4.825108   1.201538   -9.498567 H        1 UNL1     0.0233
     93 H         5.434126   2.439091   -8.420531 H        1 UNL1     0.0233
     94 H         5.043591   -1.173813   -9.00856 H        1 UNL1     0.0233
     95 H         6.730454   -1.227893   -8.473864 H        1 UNL1     0.0233
     96 H         5.433966   -1.761149   -7.37899 H        1 UNL1     0.0233
     97 H         3.771623   10.658217   0.211484 H        1 UNL1     0.0280
     98 H         5.363762   11.337382   0.008955 H        1 UNL1     0.0280
     99 H         4.228   11.311483   -1.372749 H        1 UNL1     0.0280
     100 H         6.412675   10.990937   -2.611259 H        1 UNL1     0.2922
     101 H         4.57525   1.008024   2.61912 H        1 UNL1     0.0236
     102 H         5.83899   2.29221   2.760141 H        1 UNL1     0.0236
     103 H         6.224343   0.705644   2.168694 H        1 UNL1     0.0236
     104 H         4.299486   -0.428825   1.426629 H        1 UNL1     0.2098
     105 H         0.698164   1.319197   -0.884916 H        1 UNL1     0.0234
     106 H         1.340732   -0.345464   -0.969223 H        1 UNL1     0.0234
     107 H         0.0   -0.0   0.0 H        1 UNL1     0.0234
     108 H         1.015878   3.272648   1.842186 H        1 UNL1     0.2098
     109 H         1.002395   3.095788   -0.766544 H        1 UNL1     0.0234
     110 H         -0.189426   2.355514   -1.882053 H        1 UNL1     0.0234
     111 H         0.002777   4.072568   -1.821826 H        1 UNL1     0.0234
     112 H         -3.565237   -1.675677   1.291246 H        1 UNL1     0.0342
     113 H         -3.271639   -0.050565   2.006122 H        1 UNL1     0.0342
     114 H         -4.426301   -0.249934   0.685146 H        1 UNL1     0.0342
     115 H         -2.83547   1.785448   3.250849 H        1 UNL1     0.0234
     116 H         -1.355171   1.831788   4.213841 H        1 UNL1     0.0234
     117 H         -1.877099   3.189668   3.195314 H        1 UNL1     0.0234
     118 H         0.700117   7.721935   -0.627588 H        1 UNL1     0.0309
     119 H         2.011383   7.88636   -1.836558 H        1 UNL1     0.0309
     120 H         1.292468   6.334763   -1.465254 H        1 UNL1     0.0309
     121 H         -0.685082   6.231258   2.881496 H        1 UNL1     0.0524
     122 H         -2.397828   5.904718   2.587 H        1 UNL1     0.0524
     123 H         -1.604058   5.215709   4.02538 H        1 UNL1     0.0524
@<TRIPOS>BOND
     1     1     2    1
     2     1    42    1
     3     2     3    2
     4     3     4    1
     5     4     5    2
     6     5     7    1
     7     6    75    1
     8     6    76    1
     9     6    77    1
    10     7     9   am
    11     9    10    1
    12    10    11    2
    13    10    43    1
    14    11    14    1
    15    11    15    1
    16    12    13   ar
    17    12    27   ar
    18    12    43    1
    19    13    14    1
    20    13    30   ar
    21    14    17    2
    22    15    16    1
    23    16    17    1
    24    16    18    1
    25    16    22    1
    26    18    19    1
    27    19    20    1
    28    20    21    1
    29    21    22    1
    30    23    24    1
    31    23    88    1
    32    23    89    1
    33    24    25    1
    34    24    26    1
    35    24    90    1
    36    25    91    1
    37    25    92    1
    38    25    93    1
    39    26    94    1
    40    26    95    1
    41    26    96    1
    42    27    28   ar
    43    28    29   ar
    44    29    30   ar
    45    29    31    1
    46    30    33    1
    47    31    32    1
    48    32    33    1
    49    32    35    1
    50    34    97    1
    51    34    98    1
    52    34    99    1
    53    35    61    1
    54    36    37    1
    55    36    60    1
    56    37    38    1
    57    38    39    1
    58    39    40    1
    59    40    41    1
    60    41    42    1
    61    45   100    1
    62    47   101    1
    63    47   102    1
    64    47   103    1
    65    48   104    1
    66    49   105    1
    67    49   106    1
    68    49   107    1
    69    50   108    1
    70    51    59    1
    71    52   109    1
    72    52   110    1
    73    52   111    1
    74    53    54    1
    75    54    55    2
    76    54    56    1
    77    56   112    1
    78    56   113    1
    79    56   114    1
    80    57   115    1
    81    57   116    1
    82    57   117    1
    83    58   118    1
    84    58   119    1
    85    58   120    1
    86    59   121    1
    87    59   122    1
    88    59   123    1
    89    60    61    2
    90     1    47    1
    91     1    62    1
    92     2    63    1
    93     3    64    1
    94     4    65    1
    95     5     6    1
    96     7     8    2
    97     9    78    1
    98    15    79    1
    99    18    80    1
   100    18    81    1
   101    19    82    1
   102    19    83    1
   103    20    23    1
   104    21    84    1
   105    21    85    1
   106    22    86    1
   107    22    87    1
   108    27    45    1
   109    28    34    1
   110    32    58    1
   111    33    46    2
   112    36    51    1
   113    36    66    1
   114    37    52    1
   115    37    67    1
   116    38    53    1
   117    38    68    1
   118    42    48    1
   119    42    72    1
   120    43    44    2
   121    60    73    1
   122    61    74    1
   123    39    69    1
   124    39    57    1
   125    40    70    1
   126    40    50    1
   127    41    71    1
   128    41    49    1
