@<TRIPOS>MOLECULE
*****
 123 128 0 0 0
SMALL
GASTEIGER

@<TRIPOS>ATOM
     1 C         5.167927   1.744153   0.500043 C.3        1 UNL1     0.0009
     2 C         6.606527   2.549563   -0.347767 C.2        1 UNL1     -0.0787
     3 C         7.889379   2.450717   -1.01152 C.2        1 UNL1     -0.0649
     4 C         8.768899   3.685507   -1.765241 C.2        1 UNL1     -0.0542
     5 C         9.790608   3.977788   -2.70213 C.2        1 UNL1     0.0115
     6 C         10.919714   3.351873   -3.566232 C.3        1 UNL1     -0.0348
     7 C         9.887964   5.461213   -3.307901 C.2        1 UNL1     0.2441
     8 O         10.711843   6.28212   -2.928611 O.2        1 UNL1     -0.2702
     9 N         9.13973   5.669179   -4.479672 N.am        1 UNL1     -0.2772
     10 C         7.856802   6.056659   -4.16778 C.2        1 UNL1     0.1049
     11 C         7.009862   5.08574   -3.877556 C.2        1 UNL1     0.0801
     12 C         6.557351   7.66369   -2.758449 C.ar        1 UNL1     0.0753
     13 C         5.796781   6.536145   -2.312596 C.ar        1 UNL1     0.0305
     14 C         5.913788   5.230613   -2.958312 C.2        1 UNL1     0.0924
     15 N         7.131777   3.756736   -4.036975 N.pl3        1 UNL1     -0.3170
     16 C         5.860996   3.158357   -3.725029 C.3        1 UNL1     0.1275
     17 N         5.223744   4.113664   -2.745732 N.2        1 UNL1     -0.2557
     18 C         5.010175   3.218536   -4.990013 C.3        1 UNL1     0.0016
     19 C         5.766336   2.534343   -6.117706 C.3        1 UNL1     0.0026
     20 N         6.034882   1.155897   -5.731966 N.3        1 UNL1     -0.3018
     21 C         6.796176   0.994468   -4.491506 C.3        1 UNL1     0.0026
     22 C         6.016168   1.685108   -3.371463 C.3        1 UNL1     0.0016
     23 C         6.480541   0.336474   -6.84128 C.3        1 UNL1     0.0012
     24 C         5.325343   0.084576   -7.823024 C.3        1 UNL1     -0.0339
     25 C         5.343961   1.092601   -8.983883 C.3        1 UNL1     -0.0615
     26 C         5.372111   -1.347861   -8.325733 C.3        1 UNL1     -0.0615
     27 C         6.352755   8.931319   -2.218658 C.ar        1 UNL1     0.1347
     28 C         5.392385   9.201182   -1.260058 C.ar        1 UNL1     0.0342
     29 C         4.689287   8.067057   -0.801171 C.ar        1 UNL1     0.1435
     30 C         4.908601   6.785069   -1.30677 C.ar        1 UNL1     0.0774
     31 O         3.64704   8.181039   0.050731 O.3        1 UNL1     -0.4436
     32 C         2.9247   6.948794   -0.093042 C.3        1 UNL1     0.3143
     33 C         3.938116   5.955167   -0.62399 C.2        1 UNL1     0.2504
     34 C         4.945838   10.567435   -0.819551 C.3        1 UNL1     -0.0327
     35 O         2.561689   6.511843   1.222462 O.2        1 UNL1     -0.4528
     36 C         -0.68212   4.582144   0.819905 C.3        1 UNL1     0.0854
     37 C         -0.986927   3.322126   -0.07841 C.3        1 UNL1     0.0236
     38 C         -1.58962   2.061211   0.7081 C.3        1 UNL1     0.1131
     39 C         -0.866279   1.529254   2.010432 C.3        1 UNL1     0.0200
     40 C         0.794742   1.382498   2.054139 C.3        1 UNL1     0.0661
     41 C         1.755383   0.613426   0.886531 C.3        1 UNL1     0.0091
     42 C         3.464109   0.974971   0.325334 C.3        1 UNL1     0.0661
     43 C         7.508993   7.455734   -3.877998 C.2        1 UNL1     0.2131
     44 O         7.910644   8.353798   -4.595559 O.2        1 UNL1     -0.2851
     45 O         7.166481   9.966017   -2.675482 O.3        1 UNL1     -0.5056
     46 O         3.953035   4.751572   -0.493649 O.2        1 UNL1     -0.2836
     47 C         5.561735   1.313843   1.938698 C.3        1 UNL1     -0.0566
     48 O         3.911529   -0.436488   0.407282 O.3        1 UNL1     -0.3909
     49 C         0.922964   0.381908   -0.354828 C.3        1 UNL1     -0.0577
     50 O         1.395203   2.599778   2.448344 O.3        1 UNL1     -0.3910
     51 O         -0.808515   4.392031   2.21106 O.3        1 UNL1     -0.3753
     52 C         0.059208   3.161339   -1.229365 C.3        1 UNL1     -0.0564
     53 O         -2.191568   1.023002   -0.193071 O.3        1 UNL1     -0.4608
     54 C         -2.41534   -0.286954   0.141398 C.2        1 UNL1     0.3042
     55 O         -1.843189   -1.280185   -0.305786 O.2        1 UNL1     -0.2512
     56 C         -3.446526   -0.464728   1.219251 C.3        1 UNL1     0.0332
     57 C         -1.58879   2.198291   3.270806 C.3        1 UNL1     -0.0567
     58 C         1.851373   7.195069   -1.178789 C.3        1 UNL1     0.0210
     59 C         -1.160639   5.562937   2.946489 C.3        1 UNL1     0.0372
     60 C         0.647687   5.210355   0.591596 C.2        1 UNL1     -0.0208
     61 C         1.559581   5.644602   1.462586 C.2        1 UNL1     0.0882
     62 H         4.692582   2.728636   0.58694 H        1 UNL1     0.0365
     63 H         6.340877   3.603515   -0.242481 H        1 UNL1     0.0576
     64 H         8.346679   1.48362   -1.232218 H        1 UNL1     0.0615
     65 H         8.281938   4.601125   -1.418837 H        1 UNL1     0.0622
     66 H         -1.425747   5.329326   0.508804 H        1 UNL1     0.0645
     67 H         -1.8513   3.632345   -0.690932 H        1 UNL1     0.0362
     68 H         -2.536921   2.49864   1.058528 H        1 UNL1     0.0741
     69 H         -1.198836   0.518323   2.20494 H        1 UNL1     0.0359
     70 H         0.90467   0.721758   2.935275 H        1 UNL1     0.0600
     71 H         1.797564   -0.407929   1.313159 H        1 UNL1     0.0348
     72 H         3.357058   1.462888   1.305024 H        1 UNL1     0.0602
     73 H         0.767335   5.407904   -0.444698 H        1 UNL1     0.0628
     74 H         1.540222   5.433554   2.532316 H        1 UNL1     0.1022
     75 H         10.963159   2.246505   -3.413556 H        1 UNL1     0.0279
     76 H         10.807817   3.435144   -4.644941 H        1 UNL1     0.0279
     77 H         11.924501   3.655729   -3.237938 H        1 UNL1     0.0279
     78 H         9.077916   4.79947   -5.004898 H        1 UNL1     0.1553
     79 H         7.797695   3.328493   -4.653492 H        1 UNL1     0.1484
     80 H         4.048239   2.728226   -4.797552 H        1 UNL1     0.0317
     81 H         4.784738   4.255552   -5.260984 H        1 UNL1     0.0317
     82 H         6.697767   3.065063   -6.364052 H        1 UNL1     0.0428
     83 H         5.142608   2.590268   -7.010391 H        1 UNL1     0.0428
     84 H         6.915262   -0.048685   -4.182536 H        1 UNL1     0.0428
     85 H         7.826695   1.361793   -4.59359 H        1 UNL1     0.0428
     86 H         6.531001   1.434037   -2.462673 H        1 UNL1     0.0317
     87 H         5.036185   1.208135   -3.248069 H        1 UNL1     0.0317
     88 H         7.275626   0.879261   -7.369027 H        1 UNL1     0.0429
     89 H         6.914737   -0.608392   -6.48989 H        1 UNL1     0.0429
     90 H         4.372541   0.18385   -7.289613 H        1 UNL1     0.0308
     91 H         6.29228   1.05481   -9.528277 H        1 UNL1     0.0233
     92 H         4.523651   0.897059   -9.678479 H        1 UNL1     0.0233
     93 H         5.214754   2.126441   -8.641368 H        1 UNL1     0.0233
     94 H         4.675562   -1.477929   -9.16104 H        1 UNL1     0.0233
     95 H         6.377394   -1.585118   -8.685007 H        1 UNL1     0.0233
     96 H         5.102591   -2.056394   -7.537502 H        1 UNL1     0.0233
     97 H         4.151317   10.51796   -0.080958 H        1 UNL1     0.0280
     98 H         5.758273   11.13672   -0.349316 H        1 UNL1     0.0280
     99 H         4.573917   11.132556   -1.689843 H        1 UNL1     0.0280
     100 H         6.700489   10.716821   -2.999161 H        1 UNL1     0.2922
     101 H         4.698028   0.879932   2.442074 H        1 UNL1     0.0236
     102 H         6.011504   2.118859   2.518907 H        1 UNL1     0.0236
     103 H         6.317977   0.511165   1.938483 H        1 UNL1     0.0236
     104 H         4.329617   -0.563097   1.281434 H        1 UNL1     0.2098
     105 H         0.712488   1.280991   -0.928553 H        1 UNL1     0.0234
     106 H         1.292382   -0.406652   -1.010291 H        1 UNL1     0.0234
     107 H         0.0   -0.0   0.0 H        1 UNL1     0.0234
     108 H         1.195809   3.259158   1.75608 H        1 UNL1     0.2098
     109 H         1.083371   3.046987   -0.847624 H        1 UNL1     0.0234
     110 H         -0.172777   2.334652   -1.90945 H        1 UNL1     0.0234
     111 H         0.082047   4.044372   -1.881803 H        1 UNL1     0.0234
     112 H         -3.572989   -1.52867   1.441471 H        1 UNL1     0.0342
     113 H         -3.198792   0.095682   2.119479 H        1 UNL1     0.0342
     114 H         -4.405575   -0.082982   0.842872 H        1 UNL1     0.0342
     115 H         -2.653223   1.930613   3.320975 H        1 UNL1     0.0234
     116 H         -1.138922   1.937076   4.230719 H        1 UNL1     0.0234
     117 H         -1.648372   3.298651   3.210807 H        1 UNL1     0.0234
     118 H         0.950012   7.682475   -0.767704 H        1 UNL1     0.0309
     119 H         2.222475   7.783091   -2.024197 H        1 UNL1     0.0309
     120 H         1.46279   6.263543   -1.604663 H        1 UNL1     0.0309
     121 H         -0.361444   6.290913   2.809753 H        1 UNL1     0.0524
     122 H         -2.094051   6.021999   2.580372 H        1 UNL1     0.0524
     123 H         -1.274523   5.324831   4.000258 H        1 UNL1     0.0524
@<TRIPOS>BOND
     1     1     2    1
     2     1    42    1
     3     2     3    2
     4     3     4    1
     5     4     5    2
     6     5     7    1
     7     6    75    1
     8     6    76    1
     9     6    77    1
    10     7     9   am
    11     9    10    1
    12    10    11    2
    13    10    43    1
    14    11    14    1
    15    11    15    1
    16    12    13   ar
    17    12    27   ar
    18    12    43    1
    19    13    14    1
    20    13    30   ar
    21    14    17    2
    22    15    16    1
    23    16    17    1
    24    16    18    1
    25    16    22    1
    26    18    19    1
    27    19    20    1
    28    20    21    1
    29    21    22    1
    30    23    24    1
    31    23    88    1
    32    23    89    1
    33    24    25    1
    34    24    26    1
    35    24    90    1
    36    25    91    1
    37    25    92    1
    38    25    93    1
    39    26    94    1
    40    26    95    1
    41    26    96    1
    42    27    28   ar
    43    28    29   ar
    44    29    30   ar
    45    29    31    1
    46    30    33    1
    47    31    32    1
    48    32    33    1
    49    32    35    1
    50    34    97    1
    51    34    98    1
    52    34    99    1
    53    35    61    1
    54    36    37    1
    55    36    60    1
    56    37    38    1
    57    38    39    1
    58    39    40    1
    59    40    41    1
    60    41    42    1
    61    45   100    1
    62    47   101    1
    63    47   102    1
    64    47   103    1
    65    48   104    1
    66    49   105    1
    67    49   106    1
    68    49   107    1
    69    50   108    1
    70    51    59    1
    71    52   109    1
    72    52   110    1
    73    52   111    1
    74    53    54    1
    75    54    55    2
    76    54    56    1
    77    56   112    1
    78    56   113    1
    79    56   114    1
    80    57   115    1
    81    57   116    1
    82    57   117    1
    83    58   118    1
    84    58   119    1
    85    58   120    1
    86    59   121    1
    87    59   122    1
    88    59   123    1
    89    60    61    2
    90     1    47    1
    91     1    62    1
    92     2    63    1
    93     3    64    1
    94     4    65    1
    95     5     6    1
    96     7     8    2
    97     9    78    1
    98    15    79    1
    99    18    80    1
   100    18    81    1
   101    19    82    1
   102    19    83    1
   103    20    23    1
   104    21    84    1
   105    21    85    1
   106    22    86    1
   107    22    87    1
   108    27    45    1
   109    28    34    1
   110    32    58    1
   111    33    46    2
   112    36    51    1
   113    36    66    1
   114    37    52    1
   115    37    67    1
   116    38    53    1
   117    38    68    1
   118    42    48    1
   119    42    72    1
   120    43    44    2
   121    60    73    1
   122    61    74    1
   123    39    69    1
   124    39    57    1
   125    40    70    1
   126    40    50    1
   127    41    71    1
   128    41    49    1
