@<TRIPOS>MOLECULE
*****
 123 128 0 0 0
SMALL
GASTEIGER

@<TRIPOS>ATOM
     1 C         -0.806745   2.345267   3.300636 C.3        1 UNL1     0.0009
     2 C         -2.433709   3.069741   3.815575 C.2        1 UNL1     -0.0787
     3 C         -3.371701   4.172542   3.822577 C.2        1 UNL1     -0.0649
     4 C         -4.945147   4.196364   4.447124 C.2        1 UNL1     -0.0542
     5 C         -6.19774   4.857396   4.41356 C.2        1 UNL1     0.0115
     6 C         -6.938691   6.120114   3.894084 C.3        1 UNL1     -0.0348
     7 C         -7.492778   4.097182   4.980957 C.2        1 UNL1     0.2441
     8 O         -7.976346   4.335434   6.079103 O.2        1 UNL1     -0.2702
     9 N         -8.1877   3.328373   4.031132 N.am        1 UNL1     -0.2772
     10 C         -7.668471   2.055549   3.970794 C.2        1 UNL1     0.1049
     11 C         -6.596088   1.89959   3.215881 C.2        1 UNL1     0.0801
     12 C         -6.988952   0.120525   5.40302 C.ar        1 UNL1     0.0753
     13 C         -5.7491   0.127596   4.68795 C.ar        1 UNL1     0.0305
     14 C         -5.565415   0.933252   3.482865 C.2        1 UNL1     0.0924
     15 N         -6.039595   2.735482   2.322501 N.pl3        1 UNL1     -0.3170
     16 C         -4.989124   2.020874   1.647148 C.3        1 UNL1     0.1275
     17 N         -4.53231   0.986733   2.646946 N.2        1 UNL1     -0.2557
     18 C         -5.633289   1.246496   0.501245 C.3        1 UNL1     0.0016
     19 C         -6.394066   2.224684   -0.379638 C.3        1 UNL1     0.0026
     20 N         -5.461817   3.224575   -0.881793 N.3        1 UNL1     -0.3018
     21 C         -4.746135   3.980212   0.148343 C.3        1 UNL1     0.0026
     22 C         -3.985305   2.97842   1.018657 C.3        1 UNL1     0.0016
     23 C         -6.014942   4.020494   -1.959387 C.3        1 UNL1     0.0012
     24 C         -6.164636   3.173243   -3.232773 C.3        1 UNL1     -0.0339
     25 C         -5.922585   4.012352   -4.498224 C.3        1 UNL1     -0.0615
     26 C         -5.235981   1.972965   -3.171842 C.3        1 UNL1     -0.0615
     27 C         -7.196893   -0.739679   6.478626 C.ar        1 UNL1     0.1347
     28 C         -6.257519   -1.661712   6.904633 C.ar        1 UNL1     0.0342
     29 C         -5.026685   -1.602887   6.217064 C.ar        1 UNL1     0.1435
     30 C         -4.7912   -0.721551   5.161121 C.ar        1 UNL1     0.0774
     31 O         -4.050226   -2.509148   6.441173 O.3        1 UNL1     -0.4436
     32 C         -3.20715   -2.427998   5.282073 C.3        1 UNL1     0.3143
     33 C         -3.455363   -1.047967   4.707515 C.2        1 UNL1     0.2504
     34 C         -6.499103   -2.780427   7.879422 C.3        1 UNL1     -0.0327
     35 O         -1.849657   -2.451174   5.740251 O.2        1 UNL1     -0.4528
     36 C         0.158162   -4.083946   2.963417 C.3        1 UNL1     0.0854
     37 C         0.292741   -3.660828   1.450016 C.3        1 UNL1     0.0236
     38 C         1.797396   -3.439266   0.941423 C.3        1 UNL1     0.1131
     39 C         2.775274   -2.507483   1.764712 C.3        1 UNL1     0.0200
     40 C         2.243178   -1.04481   2.364629 C.3        1 UNL1     0.0661
     41 C         1.419503   0.149367   1.485362 C.3        1 UNL1     0.0091
     42 C         0.142354   1.352759   2.020285 C.3        1 UNL1     0.0661
     43 C         -8.078388   0.996549   4.905054 C.2        1 UNL1     0.2131
     44 O         -9.256483   0.811569   5.15125 O.2        1 UNL1     -0.2851
     45 O         -8.415062   -0.651264   7.149212 O.3        1 UNL1     -0.5056
     46 O         -2.709862   -0.362877   4.043637 O.2        1 UNL1     -0.2836
     47 C         0.345187   2.95045   4.147268 C.3        1 UNL1     -0.0566
     48 O         0.797038   2.511415   1.366053 O.3        1 UNL1     -0.3909
     49 C         0.94435   -0.446907   0.179153 C.3        1 UNL1     -0.0577
     50 O         1.641918   -1.21214   3.632781 O.3        1 UNL1     -0.3910
     51 O         1.345985   -4.045752   3.721737 O.3        1 UNL1     -0.3753
     52 C         -0.88237   -2.733374   0.998472 C.3        1 UNL1     -0.0564
     53 O         1.924551   -3.386397   -0.553021 O.3        1 UNL1     -0.4608
     54 C         2.77536   -2.56909   -1.250202 C.2        1 UNL1     0.3042
     55 O         2.491914   -1.531781   -1.848104 O.2        1 UNL1     -0.2512
     56 C         4.210589   -3.009569   -1.197186 C.3        1 UNL1     0.0332
     57 C         3.629988   -3.445714   2.738036 C.3        1 UNL1     -0.0567
     58 C         -3.732746   -3.485861   4.283972 C.3        1 UNL1     0.0210
     59 C         1.884193   -5.323855   4.057371 C.3        1 UNL1     0.0372
     60 C         -0.869173   -3.334634   3.7369 C.2        1 UNL1     -0.0208
     61 C         -0.810724   -2.795033   4.955161 C.2        1 UNL1     0.0882
     62 H         -1.09282   1.405355   3.787912 H        1 UNL1     0.0365
     63 H         -2.825213   2.265906   4.442508 H        1 UNL1     0.0576
     64 H         -3.187666   5.084189   3.249745 H        1 UNL1     0.0615
     65 H         -4.996128   3.292086   5.059631 H        1 UNL1     0.0622
     66 H         -0.191065   -5.125527   2.928808 H        1 UNL1     0.0645
     67 H         0.003542   -4.567897   0.891313 H        1 UNL1     0.0362
     68 H         2.187946   -4.459999   1.07218 H        1 UNL1     0.0741
     69 H         3.598607   -2.216449   1.126096 H        1 UNL1     0.0359
     70 H         3.215541   -0.562374   2.581021 H        1 UNL1     0.0600
     71 H         2.275888   0.763769   1.144668 H        1 UNL1     0.0348
     72 H         0.64784   1.018957   2.938096 H        1 UNL1     0.0602
     73 H         -1.794297   -3.373004   3.21736 H        1 UNL1     0.0628
     74 H         0.107716   -2.664942   5.528555 H        1 UNL1     0.1022
     75 H         -6.345456   7.040549   4.112959 H        1 UNL1     0.0279
     76 H         -7.08725   6.187375   2.818688 H        1 UNL1     0.0279
     77 H         -7.867992   6.324891   4.445596 H        1 UNL1     0.0279
     78 H         -8.081871   3.746409   3.10911 H        1 UNL1     0.1553
     79 H         -6.524025   3.510176   1.90764 H        1 UNL1     0.1484
     80 H         -4.850317   0.725156   -0.062604 H        1 UNL1     0.0317
     81 H         -6.311236   0.475341   0.882506 H        1 UNL1     0.0317
     82 H         -7.227276   2.696761   0.161488 H        1 UNL1     0.0428
     83 H         -6.846915   1.651364   -1.189132 H        1 UNL1     0.0428
     84 H         -3.995309   4.667449   -0.253872 H        1 UNL1     0.0428
     85 H         -5.421591   4.62934   0.722545 H        1 UNL1     0.0428
     86 H         -3.37214   3.570208   1.672724 H        1 UNL1     0.0317
     87 H         -3.253989   2.432812   0.409901 H        1 UNL1     0.0317
     88 H         -7.009958   4.367639   -1.651605 H        1 UNL1     0.0429
     89 H         -5.406496   4.914404   -2.147782 H        1 UNL1     0.0429
     90 H         -7.180934   2.763829   -3.274383 H        1 UNL1     0.0308
     91 H         -6.101411   3.425994   -5.404485 H        1 UNL1     0.0233
     92 H         -6.569224   4.89291   -4.507376 H        1 UNL1     0.0233
     93 H         -4.893932   4.387708   -4.559994 H        1 UNL1     0.0233
     94 H         -5.040826   1.594785   -4.181163 H        1 UNL1     0.0233
     95 H         -4.278797   2.263194   -2.729658 H        1 UNL1     0.0233
     96 H         -5.668564   1.16352   -2.577165 H        1 UNL1     0.0233
     97 H         -6.284125   -3.752431   7.445574 H        1 UNL1     0.0280
     98 H         -5.859847   -2.700049   8.768325 H        1 UNL1     0.0280
     99 H         -7.554086   -2.77025   8.1988 H        1 UNL1     0.0280
     100 H         -8.666687   0.222892   7.390373 H        1 UNL1     0.2922
     101 H         0.676433   2.224581   4.889594 H        1 UNL1     0.0236
     102 H         0.088186   3.908362   4.598199 H        1 UNL1     0.0236
     103 H         1.241478   3.157623   3.539045 H        1 UNL1     0.0236
     104 H         1.434091   2.160444   0.713402 H        1 UNL1     0.2098
     105 H         1.582965   -0.228222   -0.672997 H        1 UNL1     0.0234
     106 H         0.720611   -1.512839   0.219865 H        1 UNL1     0.0234
     107 H         -0.0   0.0   0.0 H        1 UNL1     0.0234
     108 H         2.361155   -1.246963   4.292519 H        1 UNL1     0.2098
     109 H         -1.860497   -3.225353   1.093009 H        1 UNL1     0.0234
     110 H         -0.901765   -1.774625   1.52778 H        1 UNL1     0.0234
     111 H         -0.79227   -2.451787   -0.059137 H        1 UNL1     0.0234
     112 H         4.836743   -2.305548   -1.753631 H        1 UNL1     0.0342
     113 H         4.566151   -3.124642   -0.174358 H        1 UNL1     0.0342
     114 H         4.287146   -3.989361   -1.688421 H        1 UNL1     0.0342
     115 H         3.830737   -4.427175   2.286789 H        1 UNL1     0.0234
     116 H         4.58967   -3.018926   3.036215 H        1 UNL1     0.0234
     117 H         3.088422   -3.738979   3.65381 H        1 UNL1     0.0234
     118 H         -3.031037   -4.330209   4.166982 H        1 UNL1     0.0309
     119 H         -4.720288   -3.875259   4.551056 H        1 UNL1     0.0309
     120 H         -3.826985   -3.092845   3.265756 H        1 UNL1     0.0309
     121 H         2.470678   -5.20578   4.968113 H        1 UNL1     0.0524
     122 H         1.097124   -6.068204   4.263535 H        1 UNL1     0.0524
     123 H         2.513446   -5.690172   3.251179 H        1 UNL1     0.0524
@<TRIPOS>BOND
     1     1     2    1
     2     1    42    1
     3     2     3    2
     4     3     4    1
     5     4     5    2
     6     5     7    1
     7     6    75    1
     8     6    76    1
     9     6    77    1
    10     7     9   am
    11     9    10    1
    12    10    11    2
    13    10    43    1
    14    11    14    1
    15    11    15    1
    16    12    13   ar
    17    12    27   ar
    18    12    43    1
    19    13    14    1
    20    13    30   ar
    21    14    17    2
    22    15    16    1
    23    16    17    1
    24    16    18    1
    25    16    22    1
    26    18    19    1
    27    19    20    1
    28    20    21    1
    29    21    22    1
    30    23    24    1
    31    23    88    1
    32    23    89    1
    33    24    25    1
    34    24    26    1
    35    24    90    1
    36    25    91    1
    37    25    92    1
    38    25    93    1
    39    26    94    1
    40    26    95    1
    41    26    96    1
    42    27    28   ar
    43    28    29   ar
    44    29    30   ar
    45    29    31    1
    46    30    33    1
    47    31    32    1
    48    32    33    1
    49    32    35    1
    50    34    97    1
    51    34    98    1
    52    34    99    1
    53    35    61    1
    54    36    37    1
    55    36    60    1
    56    37    38    1
    57    38    39    1
    58    39    40    1
    59    40    41    1
    60    41    42    1
    61    45   100    1
    62    47   101    1
    63    47   102    1
    64    47   103    1
    65    48   104    1
    66    49   105    1
    67    49   106    1
    68    49   107    1
    69    50   108    1
    70    51    59    1
    71    52   109    1
    72    52   110    1
    73    52   111    1
    74    53    54    1
    75    54    55    2
    76    54    56    1
    77    56   112    1
    78    56   113    1
    79    56   114    1
    80    57   115    1
    81    57   116    1
    82    57   117    1
    83    58   118    1
    84    58   119    1
    85    58   120    1
    86    59   121    1
    87    59   122    1
    88    59   123    1
    89    60    61    2
    90     1    47    1
    91     1    62    1
    92     2    63    1
    93     3    64    1
    94     4    65    1
    95     5     6    1
    96     7     8    2
    97     9    78    1
    98    15    79    1
    99    18    80    1
   100    18    81    1
   101    19    82    1
   102    19    83    1
   103    20    23    1
   104    21    84    1
   105    21    85    1
   106    22    86    1
   107    22    87    1
   108    27    45    1
   109    28    34    1
   110    32    58    1
   111    33    46    2
   112    36    51    1
   113    36    66    1
   114    37    52    1
   115    37    67    1
   116    38    53    1
   117    38    68    1
   118    42    48    1
   119    42    72    1
   120    43    44    2
   121    60    73    1
   122    61    74    1
   123    39    69    1
   124    39    57    1
   125    40    70    1
   126    40    50    1
   127    41    71    1
   128    41    49    1
