@<TRIPOS>MOLECULE
*****
 123 128 0 0 0
SMALL
GASTEIGER

@<TRIPOS>ATOM
     1 C         -3.177421   -1.948747   -3.258855 C.3        1 UNL1     0.0009
     2 C         -3.142609   -2.320032   -5.074887 C.2        1 UNL1     -0.0787
     3 C         -3.645254   -2.092242   -6.413359 C.2        1 UNL1     -0.0649
     4 C         -3.060453   -2.732462   -7.867485 C.2        1 UNL1     -0.0542
     5 C         -3.028431   -2.576207   -9.275191 C.2        1 UNL1     0.0115
     6 C         -3.64611   -1.794461   -10.467109 C.3        1 UNL1     -0.0348
     7 C         -1.891995   -3.337223   -10.115642 C.2        1 UNL1     0.2441
     8 O         -2.106752   -4.360859   -10.75013 O.2        1 UNL1     -0.2702
     9 N         -0.700908   -2.610728   -10.287886 N.am        1 UNL1     -0.2772
     10 C         0.155903   -2.836708   -9.235208 C.2        1 UNL1     0.1049
     11 C         -0.051618   -2.112977   -8.150141 C.2        1 UNL1     0.0801
     12 C         1.178831   -4.664255   -7.867354 C.ar        1 UNL1     0.0753
     13 C         0.744398   -3.937037   -6.713652 C.ar        1 UNL1     0.0305
     14 C         0.231135   -2.572917   -6.817519 C.2        1 UNL1     0.0924
     15 N         -0.834073   -1.035596   -7.966997 N.pl3        1 UNL1     -0.3170
     16 C         -0.570955   -0.520271   -6.649628 C.3        1 UNL1     0.1275
     17 N         -0.119337   -1.722477   -5.856869 N.2        1 UNL1     -0.2557
     18 C         0.643626   0.39676   -6.757082 C.3        1 UNL1     0.0016
     19 C         0.35713   1.462825   -7.802556 C.3        1 UNL1     0.0026
     20 N         -0.827559   2.2075   -7.398823 N.3        1 UNL1     -0.3018
     21 C         -2.034624   1.400375   -7.20932 C.3        1 UNL1     0.0026
     22 C         -1.725675   0.33907   -6.151929 C.3        1 UNL1     0.0016
     23 C         -1.013238   3.427291   -8.159269 C.3        1 UNL1     0.0012
     24 C         -0.000866   3.502072   -9.313075 C.3        1 UNL1     -0.0339
     25 C         1.169097   4.440564   -8.974733 C.3        1 UNL1     -0.0615
     26 C         0.485752   2.108326   -9.670086 C.3        1 UNL1     -0.0615
     27 C         1.778306   -5.915864   -7.748093 C.ar        1 UNL1     0.1347
     28 C         2.031596   -6.522269   -6.530651 C.ar        1 UNL1     0.0342
     29 C         1.551182   -5.809912   -5.411315 C.ar        1 UNL1     0.1435
     30 C         0.916393   -4.571801   -5.517822 C.ar        1 UNL1     0.0774
     31 O         1.817426   -6.215473   -4.150505 O.3        1 UNL1     -0.4436
     32 C         1.603063   -5.049111   -3.34148 C.3        1 UNL1     0.3143
     33 C         0.665022   -4.174287   -4.148311 C.2        1 UNL1     0.2504
     34 C         2.889852   -7.737115   -6.31237 C.3        1 UNL1     -0.0327
     35 O         0.883972   -5.46647   -2.174445 O.2        1 UNL1     -0.4528
     36 C         1.938198   -3.099469   0.599362 C.3        1 UNL1     0.0854
     37 C         1.842155   -1.526255   0.65678 C.3        1 UNL1     0.0236
     38 C         1.054742   -0.943099   1.92629 C.3        1 UNL1     0.1131
     39 C         -0.381417   -1.501556   2.283842 C.3        1 UNL1     0.0200
     40 C         -1.511808   -1.756007   1.08388 C.3        1 UNL1     0.0661
     41 C         -1.953697   -0.642593   -0.117225 C.3        1 UNL1     0.0091
     42 C         -2.497419   -0.91279   -1.848341 C.3        1 UNL1     0.0661
     43 C         1.05119   -4.002349   -9.189416 C.2        1 UNL1     0.2131
     44 O         1.710599   -4.313868   -10.164543 O.2        1 UNL1     -0.2851
     45 O         2.130564   -6.576998   -8.922935 O.3        1 UNL1     -0.5056
     46 O         -0.127417   -3.350569   -3.749083 O.2        1 UNL1     -0.2836
     47 C         -4.421393   -2.601924   -2.598647 C.3        1 UNL1     -0.0566
     48 O         -3.654065   0.009972   -1.749363 O.3        1 UNL1     -0.3909
     49 C         -0.93612   0.476032   -0.143852 C.3        1 UNL1     -0.0577
     50 O         -1.361354   -3.042556   0.518301 O.3        1 UNL1     -0.3910
     51 O         1.181276   -3.798404   1.561646 O.3        1 UNL1     -0.3753
     52 C         1.700797   -0.899562   -0.76878 C.3        1 UNL1     -0.0564
     53 O         1.27462   0.524993   2.146935 O.3        1 UNL1     -0.4608
     54 C         1.49593   1.122311   3.360262 C.2        1 UNL1     0.3042
     55 O         2.498308   1.740405   3.716682 O.2        1 UNL1     -0.2512
     56 C         0.327626   1.026555   4.299736 C.3        1 UNL1     0.0332
     57 C         -0.19342   -2.645826   3.385422 C.3        1 UNL1     -0.0567
     58 C         2.972035   -4.339064   -3.226252 C.3        1 UNL1     0.0210
     59 C         1.690935   -5.08601   1.905428 C.3        1 UNL1     0.0372
     60 C         1.613176   -3.701498   -0.722411 C.2        1 UNL1     -0.0208
     61 C         0.859412   -4.758135   -1.029174 C.2        1 UNL1     0.0882
     62 H         -2.345075   -2.649043   -3.119223 H        1 UNL1     0.0365
     63 H         -2.407321   -3.126873   -5.103671 H        1 UNL1     0.0576
     64 H         -4.386779   -1.317901   -6.622268 H        1 UNL1     0.0615
     65 H         -2.396512   -3.54037   -7.548187 H        1 UNL1     0.0622
     66 H         3.000687   -3.317797   0.776831 H        1 UNL1     0.0645
     67 H         2.875336   -1.202254   0.871535 H        1 UNL1     0.0362
     68 H         1.715072   -1.299089   2.731746 H        1 UNL1     0.0741
     69 H         -0.879101   -0.792552   2.93194 H        1 UNL1     0.0359
     70 H         -2.429232   -1.829687   1.698669 H        1 UNL1     0.0600
     71 H         -2.808193   -0.1468   0.383757 H        1 UNL1     0.0348
     72 H         -2.649652   -1.870464   -1.329689 H        1 UNL1     0.0602
     73 H         2.194614   -3.228235   -1.474208 H        1 UNL1     0.0628
     74 H         0.190993   -5.262478   -0.330539 H        1 UNL1     0.1022
     75 H         -4.760002   -1.777542   -10.389702 H        1 UNL1     0.0279
     76 H         -3.399816   -0.737109   -10.533556 H        1 UNL1     0.0279
     77 H         -3.503478   -2.305557   -11.430508 H        1 UNL1     0.0279
     78 H         -0.907659   -1.614234   -10.306097 H        1 UNL1     0.1553
     79 H         -1.178063   -0.463255   -8.716017 H        1 UNL1     0.1484
     80 H         0.843234   0.842279   -5.775025 H        1 UNL1     0.0317
     81 H         1.539287   -0.1707   -7.031732 H        1 UNL1     0.0317
     82 H         0.228239   1.026648   -8.804079 H        1 UNL1     0.0428
     83 H         1.236571   2.104554   -7.864351 H        1 UNL1     0.0428
     84 H         -2.888304   1.970388   -6.829678 H        1 UNL1     0.0428
     85 H         -2.396368   0.977299   -8.156666 H        1 UNL1     0.0428
     86 H         -2.662604   -0.143321   -5.943482 H        1 UNL1     0.0317
     87 H         -1.471228   0.821296   -5.200188 H        1 UNL1     0.0317
     88 H         -2.025902   3.414714   -8.583117 H        1 UNL1     0.0429
     89 H         -0.945305   4.313205   -7.51482 H        1 UNL1     0.0429
     90 H         -0.505269   3.881966   -10.20944 H        1 UNL1     0.0308
     91 H         1.114979   4.785852   -7.937935 H        1 UNL1     0.0233
     92 H         2.126011   3.938685   -9.136108 H        1 UNL1     0.0233
     93 H         1.182804   5.335953   -9.607921 H        1 UNL1     0.0233
     94 H         1.560936   2.02315   -9.478879 H        1 UNL1     0.0233
     95 H         -0.026302   1.364408   -9.053362 H        1 UNL1     0.0233
     96 H         0.302954   1.879551   -10.723754 H        1 UNL1     0.0233
     97 H         3.029447   -7.953152   -5.257347 H        1 UNL1     0.0280
     98 H         2.445429   -8.641491   -6.748085 H        1 UNL1     0.0280
     99 H         3.881307   -7.574878   -6.766013 H        1 UNL1     0.0280
     100 H         2.460696   -6.017018   -9.603418 H        1 UNL1     0.2922
     101 H         -4.119188   -3.488906   -2.042238 H        1 UNL1     0.0236
     102 H         -5.22009   -2.816465   -3.307899 H        1 UNL1     0.0236
     103 H         -4.884228   -1.943051   -1.84508 H        1 UNL1     0.0236
     104 H         -4.453761   -0.533579   -1.607908 H        1 UNL1     0.2098
     105 H         -0.89161   1.020387   -1.083803 H        1 UNL1     0.0234
     106 H         -1.001969   1.171531   0.692731 H        1 UNL1     0.0234
     107 H         0.0   0.0   0.0 H        1 UNL1     0.0234
     108 H         -1.460074   -2.947715   -0.448668 H        1 UNL1     0.2098
     109 H         1.097684   -1.526086   -1.440668 H        1 UNL1     0.0234
     110 H         1.294724   0.117598   -0.75344 H        1 UNL1     0.0234
     111 H         2.676264   -0.789368   -1.260988 H        1 UNL1     0.0234
     112 H         0.13745   2.001957   4.757743 H        1 UNL1     0.0342
     113 H         -0.565136   0.646203   3.805618 H        1 UNL1     0.0342
     114 H         0.589309   0.32303   5.102069 H        1 UNL1     0.0342
     115 H         -1.155698   -3.075245   3.696561 H        1 UNL1     0.0234
     116 H         0.445695   -3.47066   3.064127 H        1 UNL1     0.0234
     117 H         0.193595   -2.270214   4.34827 H        1 UNL1     0.0234
     118 H         3.428479   -4.477697   -2.230538 H        1 UNL1     0.0309
     119 H         3.685468   -4.65421   -3.994301 H        1 UNL1     0.0309
     120 H         2.889891   -3.250437   -3.317076 H        1 UNL1     0.0309
     121 H         1.164603   -5.821843   1.298072 H        1 UNL1     0.0524
     122 H         2.767148   -5.182433   1.685191 H        1 UNL1     0.0524
     123 H         1.527773   -5.285312   2.960772 H        1 UNL1     0.0524
@<TRIPOS>BOND
     1     1     2    1
     2     1    42    1
     3     2     3    2
     4     3     4    1
     5     4     5    2
     6     5     7    1
     7     6    75    1
     8     6    76    1
     9     6    77    1
    10     7     9   am
    11     9    10    1
    12    10    11    2
    13    10    43    1
    14    11    14    1
    15    11    15    1
    16    12    13   ar
    17    12    27   ar
    18    12    43    1
    19    13    14    1
    20    13    30   ar
    21    14    17    2
    22    15    16    1
    23    16    17    1
    24    16    18    1
    25    16    22    1
    26    18    19    1
    27    19    20    1
    28    20    21    1
    29    21    22    1
    30    23    24    1
    31    23    88    1
    32    23    89    1
    33    24    25    1
    34    24    26    1
    35    24    90    1
    36    25    91    1
    37    25    92    1
    38    25    93    1
    39    26    94    1
    40    26    95    1
    41    26    96    1
    42    27    28   ar
    43    28    29   ar
    44    29    30   ar
    45    29    31    1
    46    30    33    1
    47    31    32    1
    48    32    33    1
    49    32    35    1
    50    34    97    1
    51    34    98    1
    52    34    99    1
    53    35    61    1
    54    36    37    1
    55    36    60    1
    56    37    38    1
    57    38    39    1
    58    39    40    1
    59    40    41    1
    60    41    42    1
    61    45   100    1
    62    47   101    1
    63    47   102    1
    64    47   103    1
    65    48   104    1
    66    49   105    1
    67    49   106    1
    68    49   107    1
    69    50   108    1
    70    51    59    1
    71    52   109    1
    72    52   110    1
    73    52   111    1
    74    53    54    1
    75    54    55    2
    76    54    56    1
    77    56   112    1
    78    56   113    1
    79    56   114    1
    80    57   115    1
    81    57   116    1
    82    57   117    1
    83    58   118    1
    84    58   119    1
    85    58   120    1
    86    59   121    1
    87    59   122    1
    88    59   123    1
    89    60    61    2
    90     1    47    1
    91     1    62    1
    92     2    63    1
    93     3    64    1
    94     4    65    1
    95     5     6    1
    96     7     8    2
    97     9    78    1
    98    15    79    1
    99    18    80    1
   100    18    81    1
   101    19    82    1
   102    19    83    1
   103    20    23    1
   104    21    84    1
   105    21    85    1
   106    22    86    1
   107    22    87    1
   108    27    45    1
   109    28    34    1
   110    32    58    1
   111    33    46    2
   112    36    51    1
   113    36    66    1
   114    37    52    1
   115    37    67    1
   116    38    53    1
   117    38    68    1
   118    42    48    1
   119    42    72    1
   120    43    44    2
   121    60    73    1
   122    61    74    1
   123    39    69    1
   124    39    57    1
   125    40    70    1
   126    40    50    1
   127    41    71    1
   128    41    49    1
