@<TRIPOS>MOLECULE
*****
 123 128 0 0 0
SMALL
GASTEIGER

@<TRIPOS>ATOM
     1 C         4.369791   2.454785   -1.585751 C.3        1 UNL1     0.0009
     2 C         5.541305   2.49242   -3.022127 C.2        1 UNL1     -0.0787
     3 C         6.859189   2.259882   -3.574535 C.2        1 UNL1     -0.0649
     4 C         7.349202   2.39477   -5.189481 C.2        1 UNL1     -0.0542
     5 C         8.327971   2.01639   -6.141278 C.2        1 UNL1     0.0115
     6 C         9.717604   1.344142   -6.31542 C.3        1 UNL1     -0.0348
     7 C         7.985678   2.152579   -7.703737 C.2        1 UNL1     0.2441
     8 O         8.404825   3.067326   -8.399495 O.2        1 UNL1     -0.2702
     9 N         7.390719   1.015555   -8.277628 N.am        1 UNL1     -0.2772
     10 C         6.022627   1.068427   -8.140327 C.2        1 UNL1     0.1049
     11 C         5.537519   0.657353   -6.982782 C.2        1 UNL1     0.0801
     12 C         4.052058   2.572278   -8.47592 C.ar        1 UNL1     0.0753
     13 C         3.679189   2.253884   -7.131225 C.ar        1 UNL1     0.0305
     14 C         4.339173   1.183375   -6.387262 C.2        1 UNL1     0.0924
     15 N         6.139642   -0.004817   -5.980033 N.pl3        1 UNL1     -0.3170
     16 C         5.128595   -0.364816   -5.021681 C.3        1 UNL1     0.1275
     17 N         4.061715   0.690304   -5.18359 N.2        1 UNL1     -0.2557
     18 C         4.504109   -1.674407   -5.493581 C.3        1 UNL1     0.0016
     19 C         5.607449   -2.707131   -5.660052 C.3        1 UNL1     0.0026
     20 N         6.283383   -2.879707   -4.381631 N.3        1 UNL1     -0.3018
     21 C         6.864125   -1.660299   -3.81581 C.3        1 UNL1     0.0026
     22 C         5.737572   -0.638437   -3.652803 C.3        1 UNL1     0.0016
     23 C         7.144236   -4.045331   -4.351701 C.3        1 UNL1     0.0012
     24 C         6.306573   -5.333768   -4.354377 C.3        1 UNL1     -0.0339
     25 C         6.979405   -6.443679   -3.530088 C.3        1 UNL1     -0.0615
     26 C         4.901243   -5.042305   -3.857511 C.3        1 UNL1     -0.0615
     27 C         3.339723   3.510168   -9.219599 C.ar        1 UNL1     0.1347
     28 C         2.217361   4.162726   -8.74156 C.ar        1 UNL1     0.0342
     29 C         1.898075   3.869664   -7.398676 C.ar        1 UNL1     0.1435
     30 C         2.624096   2.959353   -6.62962 C.ar        1 UNL1     0.0774
     31 O         0.770143   4.340781   -6.823502 O.3        1 UNL1     -0.4436
     32 C         0.555011   3.484049   -5.691865 C.3        1 UNL1     0.3143
     33 C         1.918209   2.907902   -5.366354 C.2        1 UNL1     0.2504
     34 C         1.261017   4.985869   -9.558837 C.3        1 UNL1     -0.0327
     35 O         0.181373   4.31998   -4.589655 O.2        1 UNL1     -0.4528
     36 C         -2.084199   2.203566   -2.399664 C.3        1 UNL1     0.0854
     37 C         -1.793721   0.811446   -1.717647 C.3        1 UNL1     0.0236
     38 C         -2.023233   0.775222   -0.130903 C.3        1 UNL1     0.1131
     39 C         -1.356618   1.879937   0.784248 C.3        1 UNL1     0.0200
     40 C         0.225166   2.344997   0.531038 C.3        1 UNL1     0.0661
     41 C         1.553248   1.302476   0.366848 C.3        1 UNL1     0.0091
     42 C         3.08873   1.47787   -0.621552 C.3        1 UNL1     0.0661
     43 C         5.168009   1.80535   -9.083155 C.2        1 UNL1     0.2131
     44 O         5.328794   1.688118   -10.284464 O.2        1 UNL1     -0.2851
     45 O         3.795931   3.795602   -10.504838 O.3        1 UNL1     -0.5056
     46 O         2.33527   2.515532   -4.299602 O.2        1 UNL1     -0.2836
     47 C         4.676089   3.622155   -0.609323 C.3        1 UNL1     -0.0566
     48 O         3.985851   1.083688   0.491511 O.3        1 UNL1     -0.3909
     49 C         1.044674   -0.104676   0.146007 C.3        1 UNL1     -0.0577
     50 O         0.296419   3.37413   -0.435156 O.3        1 UNL1     -0.3910
     51 O         -2.336511   3.278365   -1.522979 O.3        1 UNL1     -0.3753
     52 C         -0.602336   0.06538   -2.402436 C.3        1 UNL1     -0.0564
     53 O         -2.085037   -0.613221   0.435429 O.3        1 UNL1     -0.4608
     54 C         -3.044125   -1.078779   1.296438 C.2        1 UNL1     0.3042
     55 O         -4.22148   -0.727807   1.363451 O.2        1 UNL1     -0.2512
     56 C         -2.560015   -2.178277   2.198356 C.3        1 UNL1     0.0332
     57 C         -2.442784   3.029898   1.020907 C.3        1 UNL1     -0.0567
     58 C         -0.366634   2.341118   -6.177466 C.3        1 UNL1     0.0210
     59 C         -3.694404   3.714894   -1.485103 C.3        1 UNL1     0.0372
     60 C         -1.041158   2.665252   -3.355735 C.2        1 UNL1     -0.0208
     61 C         -0.476376   3.86403   -3.50639 C.2        1 UNL1     0.0882
     62 H         3.572083   2.80507   -2.25184 H        1 UNL1     0.0365
     63 H         4.910553   2.949624   -3.787362 H        1 UNL1     0.0576
     64 H         7.653539   1.796942   -2.984788 H        1 UNL1     0.0615
     65 H         6.52721   2.934962   -5.66698 H        1 UNL1     0.0622
     66 H         -2.989054   2.033391   -2.999935 H        1 UNL1     0.0645
     67 H         -2.613223   0.162726   -2.072806 H        1 UNL1     0.0362
     68 H         -3.103944   0.981155   -0.096613 H        1 UNL1     0.0741
     69 H         -1.337918   1.521539   1.804841 H        1 UNL1     0.0359
     70 H         0.430649   2.853485   1.492431 H        1 UNL1     0.0600
     71 H         1.888568   1.249082   1.421204 H        1 UNL1     0.0348
     72 H         2.676244   2.492149   -0.519517 H        1 UNL1     0.0602
     73 H         -0.849241   1.89576   -4.061638 H        1 UNL1     0.0628
     74 H         -0.575635   4.686037   -2.796679 H        1 UNL1     0.1022
     75 H         10.448315   1.758052   -5.579367 H        1 UNL1     0.0279
     76 H         9.767506   0.275428   -6.119389 H        1 UNL1     0.0279
     77 H         10.199487   1.60459   -7.269179 H        1 UNL1     0.0279
     78 H         7.714894   0.179732   -7.795562 H        1 UNL1     0.1553
     79 H         6.995468   -0.517876   -6.086178 H        1 UNL1     0.1484
     80 H         3.75823   -2.000126   -4.758505 H        1 UNL1     0.0317
     81 H         3.97115   -1.534998   -6.440244 H        1 UNL1     0.0317
     82 H         6.318759   -2.419515   -6.448232 H        1 UNL1     0.0428
     83 H         5.140468   -3.632481   -5.998734 H        1 UNL1     0.0428
     84 H         7.295327   -1.801078   -2.81979 H        1 UNL1     0.0428
     85 H         7.703464   -1.288859   -4.419846 H        1 UNL1     0.0428
     86 H         6.169924   0.186175   -3.11701 H        1 UNL1     0.0317
     87 H         4.980351   -1.02304   -2.95869 H        1 UNL1     0.0317
     88 H         7.76828   -4.032312   -5.254859 H        1 UNL1     0.0429
     89 H         7.824194   -4.016872   -3.490526 H        1 UNL1     0.0429
     90 H         6.19236   -5.685793   -5.386484 H        1 UNL1     0.0308
     91 H         7.333223   -6.064641   -2.566633 H        1 UNL1     0.0233
     92 H         6.286626   -7.270669   -3.357598 H        1 UNL1     0.0233
     93 H         7.848866   -6.874651   -4.041102 H        1 UNL1     0.0233
     94 H         4.432112   -5.961609   -3.490587 H        1 UNL1     0.0233
     95 H         4.93816   -4.328951   -3.029426 H        1 UNL1     0.0233
     96 H         4.274788   -4.628176   -4.652507 H        1 UNL1     0.0233
     97 H         0.246343   4.602466   -9.507163 H        1 UNL1     0.0280
     98 H         1.207541   6.025556   -9.210346 H        1 UNL1     0.0280
     99 H         1.578858   4.981189   -10.614323 H        1 UNL1     0.0280
     100 H         4.716851   3.980931   -10.561248 H        1 UNL1     0.2922
     101 H         3.926466   4.404655   -0.725147 H        1 UNL1     0.0236
     102 H         5.689767   4.008994   -0.708292 H        1 UNL1     0.0236
     103 H         4.59563   3.311485   0.445762 H        1 UNL1     0.0236
     104 H         3.503977   1.238059   1.327536 H        1 UNL1     0.2098
     105 H         1.45543   -0.598167   -0.731238 H        1 UNL1     0.0234
     106 H         1.118445   -0.757292   1.015821 H        1 UNL1     0.0234
     107 H         -0.0   0.0   0.0 H        1 UNL1     0.0234
     108 H         -0.490312   3.940095   -0.314716 H        1 UNL1     0.2098
     109 H         0.299084   0.056114   -1.773893 H        1 UNL1     0.0234
     110 H         -0.850765   -0.95851   -2.701893 H        1 UNL1     0.0234
     111 H         -0.305422   0.552545   -3.340763 H        1 UNL1     0.0234
     112 H         -1.826837   -1.782202   2.907526 H        1 UNL1     0.0342
     113 H         -3.379502   -2.671994   2.718478 H        1 UNL1     0.0342
     114 H         -2.055965   -2.933049   1.579149 H        1 UNL1     0.0342
     115 H         -3.444292   2.6151   1.200103 H        1 UNL1     0.0234
     116 H         -2.209535   3.696273   1.853726 H        1 UNL1     0.0234
     117 H         -2.626431   3.652039   0.128071 H        1 UNL1     0.0234
     118 H         -1.376893   2.407688   -5.737066 H        1 UNL1     0.0309
     119 H         -0.453596   2.293088   -7.267573 H        1 UNL1     0.0309
     120 H         -0.016166   1.353769   -5.857434 H        1 UNL1     0.0309
     121 H         -4.248309   3.015253   -0.859765 H        1 UNL1     0.0524
     122 H         -3.799483   4.716535   -1.035981 H        1 UNL1     0.0524
     123 H         -4.111607   3.732625   -2.48796 H        1 UNL1     0.0524
@<TRIPOS>BOND
     1     1     2    1
     2     1    42    1
     3     2     3    2
     4     3     4    1
     5     4     5    2
     6     5     7    1
     7     6    75    1
     8     6    76    1
     9     6    77    1
    10     7     9   am
    11     9    10    1
    12    10    11    2
    13    10    43    1
    14    11    14    1
    15    11    15    1
    16    12    13   ar
    17    12    27   ar
    18    12    43    1
    19    13    14    1
    20    13    30   ar
    21    14    17    2
    22    15    16    1
    23    16    17    1
    24    16    18    1
    25    16    22    1
    26    18    19    1
    27    19    20    1
    28    20    21    1
    29    21    22    1
    30    23    24    1
    31    23    88    1
    32    23    89    1
    33    24    25    1
    34    24    26    1
    35    24    90    1
    36    25    91    1
    37    25    92    1
    38    25    93    1
    39    26    94    1
    40    26    95    1
    41    26    96    1
    42    27    28   ar
    43    28    29   ar
    44    29    30   ar
    45    29    31    1
    46    30    33    1
    47    31    32    1
    48    32    33    1
    49    32    35    1
    50    34    97    1
    51    34    98    1
    52    34    99    1
    53    35    61    1
    54    36    37    1
    55    36    60    1
    56    37    38    1
    57    38    39    1
    58    39    40    1
    59    40    41    1
    60    41    42    1
    61    45   100    1
    62    47   101    1
    63    47   102    1
    64    47   103    1
    65    48   104    1
    66    49   105    1
    67    49   106    1
    68    49   107    1
    69    50   108    1
    70    51    59    1
    71    52   109    1
    72    52   110    1
    73    52   111    1
    74    53    54    1
    75    54    55    2
    76    54    56    1
    77    56   112    1
    78    56   113    1
    79    56   114    1
    80    57   115    1
    81    57   116    1
    82    57   117    1
    83    58   118    1
    84    58   119    1
    85    58   120    1
    86    59   121    1
    87    59   122    1
    88    59   123    1
    89    60    61    2
    90     1    47    1
    91     1    62    1
    92     2    63    1
    93     3    64    1
    94     4    65    1
    95     5     6    1
    96     7     8    2
    97     9    78    1
    98    15    79    1
    99    18    80    1
   100    18    81    1
   101    19    82    1
   102    19    83    1
   103    20    23    1
   104    21    84    1
   105    21    85    1
   106    22    86    1
   107    22    87    1
   108    27    45    1
   109    28    34    1
   110    32    58    1
   111    33    46    2
   112    36    51    1
   113    36    66    1
   114    37    52    1
   115    37    67    1
   116    38    53    1
   117    38    68    1
   118    42    48    1
   119    42    72    1
   120    43    44    2
   121    60    73    1
   122    61    74    1
   123    39    69    1
   124    39    57    1
   125    40    70    1
   126    40    50    1
   127    41    71    1
   128    41    49    1
