@<TRIPOS>MOLECULE
*****
 123 128 0 0 0
SMALL
GASTEIGER

@<TRIPOS>ATOM
     1 C         5.031664   2.095503   0.538937 C.3        1 UNL1     0.0009
     2 C         6.4642   2.894057   -0.325464 C.2        1 UNL1     -0.0787
     3 C         7.782197   2.804524   -0.917844 C.2        1 UNL1     -0.0649
     4 C         8.628756   4.005423   -1.758997 C.2        1 UNL1     -0.0542
     5 C         9.678397   4.260206   -2.67574 C.2        1 UNL1     0.0115
     6 C         10.882258   3.617402   -3.417928 C.3        1 UNL1     -0.0348
     7 C         9.723811   5.676139   -3.430763 C.2        1 UNL1     0.2441
     8 O         10.481001   6.580024   -3.104909 O.2        1 UNL1     -0.2702
     9 N         9.024875   5.716275   -4.649791 N.am        1 UNL1     -0.2772
     10 C         7.708472   6.055949   -4.437597 C.2        1 UNL1     0.1049
     11 C         6.903035   5.071022   -4.08346 C.2        1 UNL1     0.0801
     12 C         6.253174   7.718968   -3.265499 C.ar        1 UNL1     0.0753
     13 C         5.53473   6.59985   -2.736327 C.ar        1 UNL1     0.0305
     14 C         5.755949   5.243943   -3.233949 C.2        1 UNL1     0.0924
     15 N         7.10608   3.742429   -4.095301 N.pl3        1 UNL1     -0.3170
     16 C         5.856298   3.104075   -3.777811 C.3        1 UNL1     0.1275
     17 N         5.118936   4.115454   -2.934524 N.2        1 UNL1     -0.2557
     18 C         5.067902   2.981661   -5.078252 C.3        1 UNL1     0.0016
     19 C         5.916286   2.231253   -6.092512 C.3        1 UNL1     0.0026
     20 N         6.240973   0.91882   -5.551102 N.3        1 UNL1     -0.3018
     21 C         6.94692   0.932781   -4.26821 C.3        1 UNL1     0.0026
     22 C         6.074781   1.687362   -3.263283 C.3        1 UNL1     0.0016
     23 C         6.786278   0.01735   -6.546411 C.3        1 UNL1     0.0012
     24 C         5.698442   -0.400476   -7.548304 C.3        1 UNL1     -0.0339
     25 C         5.905442   -1.844754   -8.033349 C.3        1 UNL1     -0.0615
     26 C         4.322914   -0.209016   -6.93345 C.3        1 UNL1     -0.0615
     27 C         5.952014   9.021008   -2.87293 C.ar        1 UNL1     0.1347
     28 C         4.931371   9.330266   -1.991625 C.ar        1 UNL1     0.0342
     29 C         4.269948   8.209428   -1.446277 C.ar        1 UNL1     0.1435
     30 C         4.584867   6.897557   -1.802707 C.ar        1 UNL1     0.0774
     31 O         3.181622   8.347953   -0.658011 O.3        1 UNL1     -0.4436
     32 C         2.536632   7.066178   -0.701751 C.3        1 UNL1     0.3143
     33 C         3.628765   6.085812   -1.079034 C.2        1 UNL1     0.2504
     34 C         4.388455   10.705371   -1.718807 C.3        1 UNL1     -0.0327
     35 O         2.132882   6.746629   0.635457 O.2        1 UNL1     -0.4528
     36 C         -0.975018   4.593728   0.297727 C.3        1 UNL1     0.0854
     37 C         -1.164299   3.231454   -0.474222 C.3        1 UNL1     0.0236
     38 C         -1.735001   2.024689   0.414463 C.3        1 UNL1     0.1131
     39 C         -1.049514   1.674904   1.796501 C.3        1 UNL1     0.0200
     40 C         0.612801   1.633797   1.928626 C.3        1 UNL1     0.0661
     41 C         1.671788   0.807311   0.892733 C.3        1 UNL1     0.0091
     42 C         3.383879   1.211126   0.372078 C.3        1 UNL1     0.0661
     43 C         7.269756   7.45399   -4.313644 C.2        1 UNL1     0.2131
     44 O         7.656583   8.295538   -5.10415 O.2        1 UNL1     -0.2851
     45 O         6.729149   10.050014   -3.400799 O.3        1 UNL1     -0.5056
     46 O         3.703661   4.905263   -0.821065 O.2        1 UNL1     -0.2836
     47 C         5.376086   1.840887   2.031092 C.3        1 UNL1     -0.0566
     48 O         3.903988   -0.154742   0.623089 O.3        1 UNL1     -0.3909
     49 C         0.916688   0.398851   -0.352449 C.3        1 UNL1     -0.0577
     50 O         1.124532   2.919288   2.217362 O.3        1 UNL1     -0.3910
     51 O         -1.160251   4.541326   1.694285 O.3        1 UNL1     -0.3753
     52 C         -0.054523   3.015749   -1.554415 C.3        1 UNL1     -0.0564
     53 O         -2.232714   0.864431   -0.396962 O.3        1 UNL1     -0.4608
     54 C         -2.096886   -0.457189   -0.061104 C.2        1 UNL1     0.3042
     55 O         -1.312946   -1.273628   -0.543498 O.2        1 UNL1     -0.2512
     56 C         -2.992779   -0.886481   1.065748 C.3        1 UNL1     0.0332
     57 C         -1.870152   2.426023   2.945652 C.3        1 UNL1     -0.0567
     58 C         1.507079   7.133662   -1.853705 C.3        1 UNL1     0.0210
     59 C         -2.358048   5.158468   2.163629 C.3        1 UNL1     0.0372
     60 C         0.327785   5.27391   0.06275 C.2        1 UNL1     -0.0208
     61 C         1.169487   5.850102   0.921985 C.2        1 UNL1     0.0882
     62 H         4.498857   3.053257   0.49977 H        1 UNL1     0.0365
     63 H         6.13574   3.935317   -0.344512 H        1 UNL1     0.0576
     64 H         8.302752   1.849098   -1.014232 H        1 UNL1     0.0615
     65 H         8.07517   4.920962   -1.533575 H        1 UNL1     0.0622
     66 H         -1.742299   5.25854   -0.123405 H        1 UNL1     0.0645
     67 H         -2.012725   3.423982   -1.153682 H        1 UNL1     0.0362
     68 H         -2.721404   2.438162   0.674406 H        1 UNL1     0.0741
     69 H         -1.334993   0.671339   2.082451 H        1 UNL1     0.0359
     70 H         0.714808   1.075615   2.878935 H        1 UNL1     0.0600
     71 H         1.748949   -0.160008   1.426867 H        1 UNL1     0.0348
     72 H         3.201063   1.790462   1.288737 H        1 UNL1     0.0602
     73 H         0.488099   5.37001   -0.982388 H        1 UNL1     0.0628
     74 H         1.108254   5.750102   2.006184 H        1 UNL1     0.1022
     75 H         11.510232   3.026647   -2.708215 H        1 UNL1     0.0279
     76 H         10.64378   2.884581   -4.185502 H        1 UNL1     0.0279
     77 H         11.606089   4.362505   -3.779301 H        1 UNL1     0.0279
     78 H         9.037636   4.794748   -5.081882 H        1 UNL1     0.1553
     79 H         7.82471   3.293589   -4.632931 H        1 UNL1     0.1484
     80 H         4.126114   2.456841   -4.877337 H        1 UNL1     0.0317
     81 H         4.799331   3.969594   -5.467492 H        1 UNL1     0.0317
     82 H         6.828119   2.788778   -6.352589 H        1 UNL1     0.0428
     83 H         5.335931   2.156823   -7.012674 H        1 UNL1     0.0428
     84 H         7.107871   -0.06372   -3.845253 H        1 UNL1     0.0428
     85 H         7.95937   1.348985   -4.363266 H        1 UNL1     0.0428
     86 H         6.556527   1.563156   -2.31119 H        1 UNL1     0.0317
     87 H         5.11772   1.167548   -3.133188 H        1 UNL1     0.0317
     88 H         7.577739   0.548486   -7.091185 H        1 UNL1     0.0429
     89 H         7.251161   -0.859721   -6.078004 H        1 UNL1     0.0429
     90 H         5.734043   0.267995   -8.416689 H        1 UNL1     0.0308
     91 H         6.118337   -2.518267   -7.19779 H        1 UNL1     0.0233
     92 H         5.022132   -2.20338   -8.566978 H        1 UNL1     0.0233
     93 H         6.743628   -1.933556   -8.735057 H        1 UNL1     0.0233
     94 H         3.815416   -1.174732   -6.835099 H        1 UNL1     0.0233
     95 H         4.41744   0.225438   -5.934312 H        1 UNL1     0.0233
     96 H         3.699703   0.448014   -7.546548 H        1 UNL1     0.0233
     97 H         3.327094   10.775191   -1.937595 H        1 UNL1     0.0280
     98 H         4.497454   10.991678   -0.664575 H        1 UNL1     0.0280
     99 H         4.919261   11.442342   -2.343477 H        1 UNL1     0.0280
     100 H         6.419866   10.39315   -4.220691 H        1 UNL1     0.2922
     101 H         4.867728   2.574723   2.656162 H        1 UNL1     0.0236
     102 H         6.44784   1.811145   2.22459 H        1 UNL1     0.0236
     103 H         4.999941   0.865523   2.382337 H        1 UNL1     0.0236
     104 H         3.141866   -0.724106   0.846619 H        1 UNL1     0.2098
     105 H         0.685092   1.219542   -1.02672 H        1 UNL1     0.0234
     106 H         1.361977   -0.429052   -0.90401 H        1 UNL1     0.0234
     107 H         0.0   -0.0   0.0 H        1 UNL1     0.0234
     108 H         2.087809   2.890322   2.059168 H        1 UNL1     0.2098
     109 H         -0.059883   3.804546   -2.319583 H        1 UNL1     0.0234
     110 H         0.95016   2.926328   -1.127379 H        1 UNL1     0.0234
     111 H         -0.197337   2.072708   -2.098681 H        1 UNL1     0.0234
     112 H         -2.820253   -1.942009   1.296926 H        1 UNL1     0.0342
     113 H         -2.862813   -0.266247   1.951333 H        1 UNL1     0.0342
     114 H         -4.035102   -0.780174   0.73495 H        1 UNL1     0.0342
     115 H         -1.896624   1.842771   3.876407 H        1 UNL1     0.0234
     116 H         -1.4848   3.417794   3.190485 H        1 UNL1     0.0234
     117 H         -2.946999   2.524018   2.724883 H        1 UNL1     0.0234
     118 H         0.467632   7.13013   -1.481493 H        1 UNL1     0.0309
     119 H         1.650343   7.999613   -2.507775 H        1 UNL1     0.0309
     120 H         1.545496   6.252859   -2.503947 H        1 UNL1     0.0309
     121 H         -2.107638   6.173753   2.469976 H        1 UNL1     0.0524
     122 H         -3.127995   5.229323   1.377373 H        1 UNL1     0.0524
     123 H         -2.762853   4.602323   3.004421 H        1 UNL1     0.0524
@<TRIPOS>BOND
     1     1     2    1
     2     1    42    1
     3     2     3    2
     4     3     4    1
     5     4     5    2
     6     5     7    1
     7     6    75    1
     8     6    76    1
     9     6    77    1
    10     7     9   am
    11     9    10    1
    12    10    11    2
    13    10    43    1
    14    11    14    1
    15    11    15    1
    16    12    13   ar
    17    12    27   ar
    18    12    43    1
    19    13    14    1
    20    13    30   ar
    21    14    17    2
    22    15    16    1
    23    16    17    1
    24    16    18    1
    25    16    22    1
    26    18    19    1
    27    19    20    1
    28    20    21    1
    29    21    22    1
    30    23    24    1
    31    23    88    1
    32    23    89    1
    33    24    25    1
    34    24    26    1
    35    24    90    1
    36    25    91    1
    37    25    92    1
    38    25    93    1
    39    26    94    1
    40    26    95    1
    41    26    96    1
    42    27    28   ar
    43    28    29   ar
    44    29    30   ar
    45    29    31    1
    46    30    33    1
    47    31    32    1
    48    32    33    1
    49    32    35    1
    50    34    97    1
    51    34    98    1
    52    34    99    1
    53    35    61    1
    54    36    37    1
    55    36    60    1
    56    37    38    1
    57    38    39    1
    58    39    40    1
    59    40    41    1
    60    41    42    1
    61    45   100    1
    62    47   101    1
    63    47   102    1
    64    47   103    1
    65    48   104    1
    66    49   105    1
    67    49   106    1
    68    49   107    1
    69    50   108    1
    70    51    59    1
    71    52   109    1
    72    52   110    1
    73    52   111    1
    74    53    54    1
    75    54    55    2
    76    54    56    1
    77    56   112    1
    78    56   113    1
    79    56   114    1
    80    57   115    1
    81    57   116    1
    82    57   117    1
    83    58   118    1
    84    58   119    1
    85    58   120    1
    86    59   121    1
    87    59   122    1
    88    59   123    1
    89    60    61    2
    90     1    47    1
    91     1    62    1
    92     2    63    1
    93     3    64    1
    94     4    65    1
    95     5     6    1
    96     7     8    2
    97     9    78    1
    98    15    79    1
    99    18    80    1
   100    18    81    1
   101    19    82    1
   102    19    83    1
   103    20    23    1
   104    21    84    1
   105    21    85    1
   106    22    86    1
   107    22    87    1
   108    27    45    1
   109    28    34    1
   110    32    58    1
   111    33    46    2
   112    36    51    1
   113    36    66    1
   114    37    52    1
   115    37    67    1
   116    38    53    1
   117    38    68    1
   118    42    48    1
   119    42    72    1
   120    43    44    2
   121    60    73    1
   122    61    74    1
   123    39    69    1
   124    39    57    1
   125    40    70    1
   126    40    50    1
   127    41    71    1
   128    41    49    1
