@<TRIPOS>MOLECULE
*****
 123 128 0 0 0
SMALL
GASTEIGER

@<TRIPOS>ATOM
     1 C         4.252865   -1.432299   -3.142198 C.3        1 UNL1     0.0009
     2 C         4.957829   -1.445393   -4.85681 C.2        1 UNL1     -0.0787
     3 C         5.259948   -2.149318   -6.085329 C.2        1 UNL1     -0.0649
     4 C         5.89032   -1.512191   -7.521664 C.2        1 UNL1     -0.0542
     5 C         6.043996   -1.719443   -8.914685 C.2        1 UNL1     0.0115
     6 C         5.875768   -2.759277   -10.056511 C.3        1 UNL1     -0.0348
     7 C         6.414264   -0.468437   -9.850033 C.2        1 UNL1     0.2441
     8 O         7.543033   -0.267727   -10.276789 O.2        1 UNL1     -0.2702
     9 N         5.308165   0.233826   -10.359468 N.am        1 UNL1     -0.2772
     10 C         4.916372   1.216362   -9.479443 C.2        1 UNL1     0.1049
     11 C         4.132687   0.831445   -8.488535 C.2        1 UNL1     0.0801
     12 C         5.794966   3.109422   -8.100411 C.ar        1 UNL1     0.0753
     13 C         5.089424   2.530505   -6.997835 C.ar        1 UNL1     0.0305
     14 C         4.129157   1.445812   -7.188567 C.2        1 UNL1     0.0924
     15 N         3.476515   -0.32733   -8.306311 N.pl3        1 UNL1     -0.3170
     16 C         2.626636   -0.17475   -7.155363 C.3        1 UNL1     0.1275
     17 N         3.321453   0.862557   -6.307456 N.2        1 UNL1     -0.2557
     18 C         1.328948   0.469362   -7.633723 C.3        1 UNL1     0.0016
     19 C         0.738689   -0.389844   -8.740497 C.3        1 UNL1     0.0026
     20 N         0.497752   -1.727127   -8.216426 N.3        1 UNL1     -0.3018
     21 C         1.677811   -2.40489   -7.675624 C.3        1 UNL1     0.0026
     22 C         2.251798   -1.526616   -6.562489 C.3        1 UNL1     0.0016
     23 C         -0.332119   -2.533719   -9.08899 C.3        1 UNL1     0.0012
     24 C         0.5296   -3.251478   -10.139714 C.3        1 UNL1     -0.0339
     25 C         1.858037   -3.739916   -9.539098 C.3        1 UNL1     -0.0615
     26 C         -0.254209   -4.392346   -10.76489 C.3        1 UNL1     -0.0615
     27 C         6.616423   4.221004   -7.928038 C.ar        1 UNL1     0.1347
     28 C         6.779145   4.862355   -6.713032 C.ar        1 UNL1     0.0342
     29 C         6.113582   4.245546   -5.632413 C.ar        1 UNL1     0.1435
     30 C         5.316189   3.110387   -5.78341 C.ar        1 UNL1     0.0774
     31 O         6.084746   4.81225   -4.406436 O.3        1 UNL1     -0.4436
     32 C         4.974314   4.188104   -3.744427 C.3        1 UNL1     0.3143
     33 C         4.776483   2.868062   -4.461758 C.2        1 UNL1     0.2504
     34 C         7.437269   6.197425   -6.501937 C.3        1 UNL1     -0.0327
     35 O         5.393312   3.8788   -2.409502 O.2        1 UNL1     -0.4528
     36 C         2.264302   4.060075   -0.268352 C.3        1 UNL1     0.0854
     37 C         0.908543   3.267891   -0.416292 C.3        1 UNL1     0.0236
     38 C         0.45411   2.456098   0.889934 C.3        1 UNL1     0.1131
     39 C         1.476028   1.48275   1.60446 C.3        1 UNL1     0.0200
     40 C         2.438171   0.459383   0.704773 C.3        1 UNL1     0.0661
     41 C         1.905732   -0.57678   -0.528306 C.3        1 UNL1     0.0091
     42 C         2.748318   -1.136877   -2.058582 C.3        1 UNL1     0.0661
     43 C         5.552867   2.541639   -9.449955 C.2        1 UNL1     0.2131
     44 O         5.758809   3.151493   -10.483592 O.2        1 UNL1     -0.2851
     45 O         7.303195   4.694866   -9.043941 O.3        1 UNL1     -0.5056
     46 O         4.300919   1.840871   -4.032142 O.2        1 UNL1     -0.2836
     47 C         5.211235   -2.157494   -2.159549 C.3        1 UNL1     -0.0566
     48 O         2.404805   -2.565858   -1.860771 O.3        1 UNL1     -0.3909
     49 C         0.496608   -0.188741   -0.917266 C.3        1 UNL1     -0.0577
     50 O         3.628698   1.110093   0.30861 O.3        1 UNL1     -0.3910
     51 O         2.991343   3.821212   0.915619 O.3        1 UNL1     -0.3753
     52 C         0.725631   2.691871   -1.858406 C.3        1 UNL1     -0.0564
     53 O         -0.978251   2.009785   0.851561 O.3        1 UNL1     -0.4608
     54 C         -1.453452   0.819483   1.336634 C.2        1 UNL1     0.3042
     55 O         -2.478942   0.635781   1.991203 O.2        1 UNL1     -0.2512
     56 C         -0.616462   -0.365683   0.947349 C.3        1 UNL1     0.0332
     57 C         2.164643   2.297003   2.796507 C.3        1 UNL1     -0.0567
     58 C         3.745153   5.088586   -4.008671 C.3        1 UNL1     0.0210
     59 C         2.98062   4.896945   1.852928 C.3        1 UNL1     0.0372
     60 C         3.217618   3.891651   -1.398831 C.2        1 UNL1     -0.0208
     61 C         4.532681   3.669529   -1.394856 C.2        1 UNL1     0.0882
     62 H         4.486321   -0.362861   -3.075032 H        1 UNL1     0.0365
     63 H         5.362559   -0.433027   -4.918265 H        1 UNL1     0.0576
     64 H         4.937897   -3.180239   -6.248402 H        1 UNL1     0.0615
     65 H         6.250855   -0.521661   -7.231236 H        1 UNL1     0.0622
     66 H         1.968136   5.118478   -0.279086 H        1 UNL1     0.0645
     67 H         0.139615   4.05861   -0.461836 H        1 UNL1     0.0362
     68 H         0.313383   3.295171   1.588272 H        1 UNL1     0.0741
     69 H         0.922725   0.797101   2.232273 H        1 UNL1     0.0359
     70 H         2.758326   -0.245691   1.495616 H        1 UNL1     0.0600
     71 H         1.7229   -1.49805   0.058883 H        1 UNL1     0.0348
     72 H         3.542995   -0.776028   -1.389559 H        1 UNL1     0.0602
     73 H         2.71784   4.102543   -2.311517 H        1 UNL1     0.0628
     74 H         5.108132   3.389692   -0.511802 H        1 UNL1     0.1022
     75 H         5.62221   -3.763179   -9.638272 H        1 UNL1     0.0279
     76 H         5.061291   -2.58434   -10.755862 H        1 UNL1     0.0279
     77 H         6.819702   -2.974038   -10.578592 H        1 UNL1     0.0279
     78 H         4.523   -0.403231   -10.476732 H        1 UNL1     0.1553
     79 H         3.28077   -0.978562   -9.044222 H        1 UNL1     0.1484
     80 H         0.639945   0.558314   -6.78512 H        1 UNL1     0.0317
     81 H         1.50841   1.485992   -7.99966 H        1 UNL1     0.0317
     82 H         1.393749   -0.422844   -9.623515 H        1 UNL1     0.0428
     83 H         -0.184804   0.088516   -9.068191 H        1 UNL1     0.0428
     84 H         1.455605   -3.373316   -7.216727 H        1 UNL1     0.0428
     85 H         2.408202   -2.643192   -8.461155 H        1 UNL1     0.0428
     86 H         3.027715   -2.11093   -6.103666 H        1 UNL1     0.0317
     87 H         1.513847   -1.409429   -5.759499 H        1 UNL1     0.0317
     88 H         -0.837884   -3.290749   -8.475475 H        1 UNL1     0.0429
     89 H         -1.115362   -1.929655   -9.564816 H        1 UNL1     0.0429
     90 H         0.7511   -2.556374   -10.958237 H        1 UNL1     0.0308
     91 H         2.500551   -4.185519   -10.304419 H        1 UNL1     0.0233
     92 H         2.390919   -2.915951   -9.058757 H        1 UNL1     0.0233
     93 H         1.710864   -4.501937   -8.764179 H        1 UNL1     0.0233
     94 H         -0.175144   -5.290412   -10.142747 H        1 UNL1     0.0233
     95 H         -1.311923   -4.123863   -10.836452 H        1 UNL1     0.0233
     96 H         0.117842   -4.631056   -11.765172 H        1 UNL1     0.0233
     97 H         8.511151   6.151303   -6.656471 H        1 UNL1     0.0280
     98 H         7.065341   6.957377   -7.201506 H        1 UNL1     0.0280
     99 H         7.250905   6.54194   -5.471562 H        1 UNL1     0.0280
     100 H         6.827292   5.322188   -9.55931 H        1 UNL1     0.2922
     101 H         4.863   -2.018259   -1.136318 H        1 UNL1     0.0236
     102 H         6.253014   -1.862543   -2.280728 H        1 UNL1     0.0236
     103 H         5.209222   -3.250044   -2.309631 H        1 UNL1     0.0236
     104 H         2.345936   -2.724568   -0.898318 H        1 UNL1     0.2098
     105 H         0.429692   0.711362   -1.523193 H        1 UNL1     0.0234
     106 H         -0.089079   -0.990798   -1.366268 H        1 UNL1     0.0234
     107 H         -0.0   0.0   0.0 H        1 UNL1     0.0234
     108 H         4.03911   0.564285   -0.389548 H        1 UNL1     0.2098
     109 H         0.700494   3.481972   -2.621833 H        1 UNL1     0.0234
     110 H         1.485276   1.949066   -2.124722 H        1 UNL1     0.0234
     111 H         -0.223965   2.149804   -1.960274 H        1 UNL1     0.0234
     112 H         0.149993   -0.545723   1.707269 H        1 UNL1     0.0342
     113 H         -1.220085   -1.256908   0.782423 H        1 UNL1     0.0342
     114 H         -0.105997   -0.130013   0.003395 H        1 UNL1     0.0342
     115 H         2.402294   1.647926   3.650562 H        1 UNL1     0.0234
     116 H         3.083718   2.811811   2.509589 H        1 UNL1     0.0234
     117 H         1.49441   3.035064   3.269789 H        1 UNL1     0.0234
     118 H         4.007537   6.161014   -4.000979 H        1 UNL1     0.0309
     119 H         3.232887   4.851926   -4.946635 H        1 UNL1     0.0309
     120 H         2.988039   5.008159   -3.221006 H        1 UNL1     0.0309
     121 H         3.186704   4.47831   2.837626 H        1 UNL1     0.0524
     122 H         3.762259   5.645122   1.640069 H        1 UNL1     0.0524
     123 H         2.011869   5.388481   1.849861 H        1 UNL1     0.0524
@<TRIPOS>BOND
     1     1     2    1
     2     1    42    1
     3     2     3    2
     4     3     4    1
     5     4     5    2
     6     5     7    1
     7     6    75    1
     8     6    76    1
     9     6    77    1
    10     7     9   am
    11     9    10    1
    12    10    11    2
    13    10    43    1
    14    11    14    1
    15    11    15    1
    16    12    13   ar
    17    12    27   ar
    18    12    43    1
    19    13    14    1
    20    13    30   ar
    21    14    17    2
    22    15    16    1
    23    16    17    1
    24    16    18    1
    25    16    22    1
    26    18    19    1
    27    19    20    1
    28    20    21    1
    29    21    22    1
    30    23    24    1
    31    23    88    1
    32    23    89    1
    33    24    25    1
    34    24    26    1
    35    24    90    1
    36    25    91    1
    37    25    92    1
    38    25    93    1
    39    26    94    1
    40    26    95    1
    41    26    96    1
    42    27    28   ar
    43    28    29   ar
    44    29    30   ar
    45    29    31    1
    46    30    33    1
    47    31    32    1
    48    32    33    1
    49    32    35    1
    50    34    97    1
    51    34    98    1
    52    34    99    1
    53    35    61    1
    54    36    37    1
    55    36    60    1
    56    37    38    1
    57    38    39    1
    58    39    40    1
    59    40    41    1
    60    41    42    1
    61    45   100    1
    62    47   101    1
    63    47   102    1
    64    47   103    1
    65    48   104    1
    66    49   105    1
    67    49   106    1
    68    49   107    1
    69    50   108    1
    70    51    59    1
    71    52   109    1
    72    52   110    1
    73    52   111    1
    74    53    54    1
    75    54    55    2
    76    54    56    1
    77    56   112    1
    78    56   113    1
    79    56   114    1
    80    57   115    1
    81    57   116    1
    82    57   117    1
    83    58   118    1
    84    58   119    1
    85    58   120    1
    86    59   121    1
    87    59   122    1
    88    59   123    1
    89    60    61    2
    90     1    47    1
    91     1    62    1
    92     2    63    1
    93     3    64    1
    94     4    65    1
    95     5     6    1
    96     7     8    2
    97     9    78    1
    98    15    79    1
    99    18    80    1
   100    18    81    1
   101    19    82    1
   102    19    83    1
   103    20    23    1
   104    21    84    1
   105    21    85    1
   106    22    86    1
   107    22    87    1
   108    27    45    1
   109    28    34    1
   110    32    58    1
   111    33    46    2
   112    36    51    1
   113    36    66    1
   114    37    52    1
   115    37    67    1
   116    38    53    1
   117    38    68    1
   118    42    48    1
   119    42    72    1
   120    43    44    2
   121    60    73    1
   122    61    74    1
   123    39    69    1
   124    39    57    1
   125    40    70    1
   126    40    50    1
   127    41    71    1
   128    41    49    1
