@<TRIPOS>MOLECULE
*****
 123 128 0 0 0
SMALL
GASTEIGER

@<TRIPOS>ATOM
     1 C         4.97066   2.241937   0.527332 C.3        1 UNL1     0.0009
     2 C         6.356846   3.120181   -0.335345 C.2        1 UNL1     -0.0787
     3 C         7.668899   3.099916   -0.947026 C.2        1 UNL1     -0.0649
     4 C         8.453476   4.355214   -1.768624 C.2        1 UNL1     -0.0542
     5 C         9.478706   4.675765   -2.692328 C.2        1 UNL1     0.0115
     6 C         10.69732   4.101845   -3.466226 C.3        1 UNL1     -0.0348
     7 C         9.455287   6.110567   -3.411899 C.2        1 UNL1     0.2441
     8 O         10.179272   7.036695   -3.073288 O.2        1 UNL1     -0.2702
     9 N         8.738123   6.151818   -4.620256 N.am        1 UNL1     -0.2772
     10 C         7.41202   6.431384   -4.382313 C.2        1 UNL1     0.1049
     11 C         6.652775   5.405529   -4.042621 C.2        1 UNL1     0.0801
     12 C         5.906415   8.003317   -3.149628 C.ar        1 UNL1     0.0753
     13 C         5.242063   6.842708   -2.6395 C.ar        1 UNL1     0.0305
     14 C         5.511687   5.509811   -3.174048 C.2        1 UNL1     0.0924
     15 N         6.909992   4.087174   -4.090657 N.pl3        1 UNL1     -0.3170
     16 C         5.692077   3.390004   -3.773022 C.3        1 UNL1     0.1275
     17 N         4.925825   4.348882   -2.894878 N.2        1 UNL1     -0.2557
     18 C         4.891059   3.267202   -5.06569 C.3        1 UNL1     0.0016
     19 C         5.755099   2.577808   -6.109606 C.3        1 UNL1     0.0026
     20 N         6.141003   1.266973   -5.605801 N.3        1 UNL1     -0.3018
     21 C         6.863853   1.27847   -4.332332 C.3        1 UNL1     0.0026
     22 C         5.975777   1.97128   -3.297329 C.3        1 UNL1     0.0016
     23 C         6.708718   0.413683   -6.630613 C.3        1 UNL1     0.0012
     24 C         5.623522   -0.4833   -7.246671 C.3        1 UNL1     -0.0339
     25 C         6.18751   -1.858213   -7.641119 C.3        1 UNL1     -0.0615
     26 C         4.45081   -0.613583   -6.290348 C.3        1 UNL1     -0.0615
     27 C         5.557649   9.281693   -2.720402 C.ar        1 UNL1     0.1347
     28 C         4.537738   9.526603   -1.818265 C.ar        1 UNL1     0.0342
     29 C         3.930654   8.366234   -1.292758 C.ar        1 UNL1     0.1435
     30 C         4.294079   7.077718   -1.686289 C.ar        1 UNL1     0.0774
     31 O         2.848815   8.440105   -0.487045 O.3        1 UNL1     -0.4436
     32 C         2.256423   7.134206   -0.554666 C.3        1 UNL1     0.3143
     33 C         3.382428   6.209487   -0.970862 C.2        1 UNL1     0.2504
     34 C         3.942754   10.870909   -1.503727 C.3        1 UNL1     -0.0327
     35 O         1.885078   6.765317   0.779229 O.2        1 UNL1     -0.4528
     36 C         -1.136306   4.494636   0.428041 C.3        1 UNL1     0.0854
     37 C         -1.280413   3.145164   -0.375502 C.3        1 UNL1     0.0236
     38 C         -1.788479   1.894249   0.489845 C.3        1 UNL1     0.1131
     39 C         -1.069739   1.539128   1.853506 C.3        1 UNL1     0.0200
     40 C         0.594564   1.563601   1.962744 C.3        1 UNL1     0.0661
     41 C         1.671826   0.807466   0.892521 C.3        1 UNL1     0.0091
     42 C         3.358366   1.294515   0.359822 C.3        1 UNL1     0.0661
     43 C         6.918091   7.806586   -4.217368 C.2        1 UNL1     0.2131
     44 O         7.258835   8.682675   -4.991382 O.2        1 UNL1     -0.2851
     45 O         6.284354   10.354692   -3.232272 O.3        1 UNL1     -0.5056
     46 O         3.509355   5.027042   -0.743781 O.2        1 UNL1     -0.2836
     47 C         5.346308   1.965042   2.00794 C.3        1 UNL1     -0.0566
     48 O         3.937594   -0.054438   0.569434 O.3        1 UNL1     -0.3909
     49 C         0.916594   0.398964   -0.352567 C.3        1 UNL1     -0.0577
     50 O         1.057135   2.86165   2.277102 O.3        1 UNL1     -0.3910
     51 O         -1.299464   4.400161   1.82514 O.3        1 UNL1     -0.3753
     52 C         -0.178105   3.002295   -1.475254 C.3        1 UNL1     -0.0564
     53 O         -2.249577   0.734769   -0.344014 O.3        1 UNL1     -0.4608
     54 C         -2.054884   -0.587985   -0.043435 C.2        1 UNL1     0.3042
     55 O         -1.222858   -1.350598   -0.533324 O.2        1 UNL1     -0.2512
     56 C         -2.949081   -1.093561   1.052703 C.3        1 UNL1     0.0332
     57 C         -1.904182   2.227052   3.031912 C.3        1 UNL1     -0.0567
     58 C         1.208781   7.187437   -1.69095 C.3        1 UNL1     0.0210
     59 C         -2.528806   4.927118   2.32203 C.3        1 UNL1     0.0372
     60 C         0.13403   5.233742   0.193246 C.2        1 UNL1     -0.0208
     61 C         0.96344   5.822891   1.055642 C.2        1 UNL1     0.0882
     62 H         4.398492   3.177496   0.519344 H        1 UNL1     0.0365
     63 H         5.98569   4.147109   -0.323793 H        1 UNL1     0.0576
     64 H         8.226814   2.169521   -1.074318 H        1 UNL1     0.0615
     65 H         7.866023   5.241217   -1.512925 H        1 UNL1     0.0622
     66 H         -1.936104   5.137317   0.033922 H        1 UNL1     0.0645
     67 H         -2.145549   3.319127   -1.038702 H        1 UNL1     0.0362
     68 H         -2.787247   2.260005   0.773054 H        1 UNL1     0.0741
     69 H         -1.309716   0.517857   2.117751 H        1 UNL1     0.0359
     70 H         0.732824   0.986834   2.89724 H        1 UNL1     0.0600
     71 H         1.79617   -0.168719   1.40101 H        1 UNL1     0.0348
     72 H         3.164907   1.842988   1.293131 H        1 UNL1     0.0602
     73 H         0.275469   5.36216   -0.851145 H        1 UNL1     0.0628
     74 H         0.921701   5.693714   2.137681 H        1 UNL1     0.1022
     75 H         11.539921   3.885633   -2.766004 H        1 UNL1     0.0279
     76 H         10.55109   3.143647   -3.959726 H        1 UNL1     0.0279
     77 H         11.158807   4.838809   -4.139736 H        1 UNL1     0.0279
     78 H         8.782584   5.242555   -5.075602 H        1 UNL1     0.1553
     79 H         7.638763   3.681863   -4.648822 H        1 UNL1     0.1484
     80 H         3.97454   2.699059   -4.865756 H        1 UNL1     0.0317
     81 H         4.576689   4.252481   -5.426312 H        1 UNL1     0.0317
     82 H         6.639512   3.178839   -6.367459 H        1 UNL1     0.0428
     83 H         5.165334   2.502158   -7.023665 H        1 UNL1     0.0428
     84 H         7.071533   0.279349   -3.936811 H        1 UNL1     0.0428
     85 H         7.856922   1.738435   -4.430119 H        1 UNL1     0.0428
     86 H         6.47563   1.843656   -2.355073 H        1 UNL1     0.0317
     87 H         5.042793   1.409253   -3.16786 H        1 UNL1     0.0317
     88 H         7.120967   1.055819   -7.419921 H        1 UNL1     0.0429
     89 H         7.539966   -0.184646   -6.235893 H        1 UNL1     0.0429
     90 H         5.224531   0.001413   -8.1456 H        1 UNL1     0.0308
     91 H         7.014099   -2.151565   -6.987056 H        1 UNL1     0.0233
     92 H         5.407799   -2.622301   -7.598369 H        1 UNL1     0.0233
     93 H         6.573593   -1.872392   -8.667557 H        1 UNL1     0.0233
     94 H         3.673725   0.11552   -6.544084 H        1 UNL1     0.0233
     95 H         4.013902   -1.613037   -6.368876 H        1 UNL1     0.0233
     96 H         4.759378   -0.443576   -5.255046 H        1 UNL1     0.0233
     97 H         2.876182   10.901718   -1.705484 H        1 UNL1     0.0280
     98 H         4.056005   11.13597   -0.4444 H        1 UNL1     0.0280
     99 H         4.433026   11.644221   -2.117501 H        1 UNL1     0.0280
     100 H         7.218691   10.250805   -3.189319 H        1 UNL1     0.2922
     101 H         4.81715   2.661561   2.657947 H        1 UNL1     0.0236
     102 H         6.421009   1.974912   2.186556 H        1 UNL1     0.0236
     103 H         5.015517   0.966576   2.339355 H        1 UNL1     0.0236
     104 H         4.910388   0.038452   0.565782 H        1 UNL1     0.2098
     105 H         0.684811   1.219652   -1.026777 H        1 UNL1     0.0234
     106 H         1.361896   -0.428872   -0.904219 H        1 UNL1     0.0234
     107 H         0.0   -0.0   0.0 H        1 UNL1     0.0234
     108 H         2.019929   2.873961   2.11387 H        1 UNL1     0.2098
     109 H         -0.226654   3.80884   -2.22013 H        1 UNL1     0.0234
     110 H         0.83534   2.944016   -1.063821 H        1 UNL1     0.0234
     111 H         -0.289776   2.067873   -2.041232 H        1 UNL1     0.0234
     112 H         -2.728949   -2.145774   1.256998 H        1 UNL1     0.0342
     113 H         -2.866206   -0.494133   1.958054 H        1 UNL1     0.0342
     114 H         -3.989116   -1.028531   0.704475 H        1 UNL1     0.0342
     115 H         -1.593478   1.86075   4.020079 H        1 UNL1     0.0234
     116 H         -1.833625   3.316454   3.048462 H        1 UNL1     0.0234
     117 H         -2.973735   1.955031   3.030436 H        1 UNL1     0.0234
     118 H         0.175722   7.131707   -1.305349 H        1 UNL1     0.0309
     119 H         1.307119   8.074454   -2.324775 H        1 UNL1     0.0309
     120 H         1.274117   6.325295   -2.363667 H        1 UNL1     0.0309
     121 H         -3.332496   4.286895   1.959328 H        1 UNL1     0.0524
     122 H         -2.571453   4.921408   3.423931 H        1 UNL1     0.0524
     123 H         -2.671672   5.944467   1.968923 H        1 UNL1     0.0524
@<TRIPOS>BOND
     1     1     2    1
     2     1    42    1
     3     2     3    2
     4     3     4    1
     5     4     5    2
     6     5     7    1
     7     6    75    1
     8     6    76    1
     9     6    77    1
    10     7     9   am
    11     9    10    1
    12    10    11    2
    13    10    43    1
    14    11    14    1
    15    11    15    1
    16    12    13   ar
    17    12    27   ar
    18    12    43    1
    19    13    14    1
    20    13    30   ar
    21    14    17    2
    22    15    16    1
    23    16    17    1
    24    16    18    1
    25    16    22    1
    26    18    19    1
    27    19    20    1
    28    20    21    1
    29    21    22    1
    30    23    24    1
    31    23    88    1
    32    23    89    1
    33    24    25    1
    34    24    26    1
    35    24    90    1
    36    25    91    1
    37    25    92    1
    38    25    93    1
    39    26    94    1
    40    26    95    1
    41    26    96    1
    42    27    28   ar
    43    28    29   ar
    44    29    30   ar
    45    29    31    1
    46    30    33    1
    47    31    32    1
    48    32    33    1
    49    32    35    1
    50    34    97    1
    51    34    98    1
    52    34    99    1
    53    35    61    1
    54    36    37    1
    55    36    60    1
    56    37    38    1
    57    38    39    1
    58    39    40    1
    59    40    41    1
    60    41    42    1
    61    45   100    1
    62    47   101    1
    63    47   102    1
    64    47   103    1
    65    48   104    1
    66    49   105    1
    67    49   106    1
    68    49   107    1
    69    50   108    1
    70    51    59    1
    71    52   109    1
    72    52   110    1
    73    52   111    1
    74    53    54    1
    75    54    55    2
    76    54    56    1
    77    56   112    1
    78    56   113    1
    79    56   114    1
    80    57   115    1
    81    57   116    1
    82    57   117    1
    83    58   118    1
    84    58   119    1
    85    58   120    1
    86    59   121    1
    87    59   122    1
    88    59   123    1
    89    60    61    2
    90     1    47    1
    91     1    62    1
    92     2    63    1
    93     3    64    1
    94     4    65    1
    95     5     6    1
    96     7     8    2
    97     9    78    1
    98    15    79    1
    99    18    80    1
   100    18    81    1
   101    19    82    1
   102    19    83    1
   103    20    23    1
   104    21    84    1
   105    21    85    1
   106    22    86    1
   107    22    87    1
   108    27    45    1
   109    28    34    1
   110    32    58    1
   111    33    46    2
   112    36    51    1
   113    36    66    1
   114    37    52    1
   115    37    67    1
   116    38    53    1
   117    38    68    1
   118    42    48    1
   119    42    72    1
   120    43    44    2
   121    60    73    1
   122    61    74    1
   123    39    69    1
   124    39    57    1
   125    40    70    1
   126    40    50    1
   127    41    71    1
   128    41    49    1
