@<TRIPOS>MOLECULE
*****
 123 128 0 0 0
SMALL
GASTEIGER

@<TRIPOS>ATOM
     1 C         -0.203141   -5.005309   -2.162372 C.3        1 UNL1     0.0009
     2 C         -0.219817   -5.968731   -3.746221 C.2        1 UNL1     -0.0787
     3 C         -0.929734   -6.766815   -4.723526 C.2        1 UNL1     -0.0649
     4 C         -0.359526   -7.340298   -6.210919 C.2        1 UNL1     -0.0542
     5 C         -0.732895   -7.832049   -7.486009 C.2        1 UNL1     0.0115
     6 C         -1.931103   -8.334633   -8.337495 C.3        1 UNL1     -0.0348
     7 C         0.350971   -7.82272   -8.670127 C.2        1 UNL1     0.2441
     8 O         0.952762   -8.825404   -9.029291 O.2        1 UNL1     -0.2702
     9 N         0.372821   -6.646283   -9.439328 N.am        1 UNL1     -0.2772
     10 C         1.220608   -5.720163   -8.876406 C.2        1 UNL1     0.1049
     11 C         0.71847   -4.991749   -7.895848 C.2        1 UNL1     0.0801
     12 C         3.527565   -5.449194   -7.948043 C.ar        1 UNL1     0.0753
     13 C         2.911909   -4.849198   -6.803673 C.ar        1 UNL1     0.0305
     14 C         1.497495   -4.482495   -6.799875 C.2        1 UNL1     0.0924
     15 N         -0.554304   -4.854103   -7.486426 N.pl3        1 UNL1     -0.3170
     16 C         -0.58646   -3.812841   -6.493958 C.3        1 UNL1     0.1275
     17 N         0.790684   -3.836255   -5.876989 N.2        1 UNL1     -0.2557
     18 C         -0.695554   -2.484202   -7.235926 C.3        1 UNL1     0.0016
     19 C         -1.918704   -2.529836   -8.13782 C.3        1 UNL1     0.0026
     20 N         -3.097057   -2.769407   -7.316164 N.3        1 UNL1     -0.3018
     21 C         -3.058433   -3.995371   -6.516234 C.3        1 UNL1     0.0026
     22 C         -1.82473   -3.926127   -5.614526 C.3        1 UNL1     0.0016
     23 C         -4.337817   -2.534931   -8.027628 C.3        1 UNL1     0.0012
     24 C         -4.743367   -3.782179   -8.828663 C.3        1 UNL1     -0.0339
     25 C         -6.015413   -4.429038   -8.256363 C.3        1 UNL1     -0.0615
     26 C         -4.908258   -3.427674   -10.296286 C.3        1 UNL1     -0.0615
     27 C         4.899752   -5.684873   -7.988965 C.ar        1 UNL1     0.1347
     28 C         5.761015   -5.328642   -6.966528 C.ar        1 UNL1     0.0342
     29 C         5.126068   -4.784157   -5.830067 C.ar        1 UNL1     0.1435
     30 C         3.748084   -4.575528   -5.760395 C.ar        1 UNL1     0.0774
     31 O         5.838217   -4.286481   -4.795578 O.3        1 UNL1     -0.4436
     32 C         4.918766   -3.430395   -4.100884 C.3        1 UNL1     0.3143
     33 C         3.54203   -3.940951   -4.475242 C.2        1 UNL1     0.2504
     34 C         7.262468   -5.318872   -7.041647 C.3        1 UNL1     -0.0327
     35 O         5.086806   -3.673397   -2.698755 O.2        1 UNL1     -0.4528
     36 C         4.24285   -0.402653   -0.967264 C.3        1 UNL1     0.0854
     37 C         2.914615   0.445333   -1.032353 C.3        1 UNL1     0.0236
     38 C         2.246322   0.764769   0.39 C.3        1 UNL1     0.1131
     39 C         1.988286   -0.409716   1.417751 C.3        1 UNL1     0.0200
     40 C         1.357027   -1.863656   0.898128 C.3        1 UNL1     0.0661
     41 C         -0.018492   -2.05854   -0.075309 C.3        1 UNL1     0.0091
     42 C         -0.416831   -3.335731   -1.330502 C.3        1 UNL1     0.0661
     43 C         2.669744   -5.730312   -9.125912 C.2        1 UNL1     0.2131
     44 O         3.10121   -5.859977   -10.257178 O.2        1 UNL1     -0.2851
     45 O         5.41269   -6.314357   -9.121256 O.3        1 UNL1     -0.5056
     46 O         2.511657   -3.861473   -3.844473 O.2        1 UNL1     -0.2836
     47 C         -0.222571   -5.968507   -0.945058 C.3        1 UNL1     -0.0566
     48 O         -1.782512   -3.585192   -0.809158 O.3        1 UNL1     -0.3909
     49 C         -0.384578   -0.719835   -0.67643 C.3        1 UNL1     -0.0577
     50 O         2.385477   -2.728569   0.460019 O.3        1 UNL1     -0.3910
     51 O         4.582342   -0.919449   0.29966 O.3        1 UNL1     -0.3753
     52 C         2.058794   0.090293   -2.291903 C.3        1 UNL1     -0.0564
     53 O         1.20649   1.845574   0.335824 O.3        1 UNL1     -0.4608
     54 C         0.971034   2.772328   1.317464 C.2        1 UNL1     0.3042
     55 O         0.397631   2.593602   2.391291 O.2        1 UNL1     -0.2512
     56 C         1.548798   4.126172   1.017449 C.3        1 UNL1     0.0332
     57 C         3.232274   -0.453709   2.422108 C.3        1 UNL1     -0.0567
     58 C         5.104585   -2.014913   -4.695369 C.3        1 UNL1     0.0210
     59 C         5.566949   -0.168898   1.008947 C.3        1 UNL1     0.0372
     60 C         4.311407   -1.538498   -1.926595 C.2        1 UNL1     -0.0208
     61 C         4.708079   -2.799087   -1.746843 C.2        1 UNL1     0.0882
     62 H         0.84868   -4.756035   -2.347431 H        1 UNL1     0.0365
     63 H         0.834859   -5.920265   -4.02511 H        1 UNL1     0.0576
     64 H         -2.005632   -6.939864   -4.648652 H        1 UNL1     0.0615
     65 H         0.722225   -7.193624   -6.149405 H        1 UNL1     0.0622
     66 H         5.032799   0.297857   -1.272735 H        1 UNL1     0.0645
     67 H         3.252022   1.448333   -1.34653 H        1 UNL1     0.0362
     68 H         3.047323   1.373035   0.837137 H        1 UNL1     0.0741
     69 H         1.258642   -0.081083   2.145782 H        1 UNL1     0.0359
     70 H         1.032868   -2.288146   1.867555 H        1 UNL1     0.0600
     71 H         -0.795424   -2.164916   0.707006 H        1 UNL1     0.0348
     72 H         0.380478   -3.763237   -0.705321 H        1 UNL1     0.0602
     73 H         4.100309   -1.182953   -2.904488 H        1 UNL1     0.0628
     74 H         4.887328   -3.256249   -0.773134 H        1 UNL1     0.1022
     75 H         -2.237638   -9.35935   -8.01652 H        1 UNL1     0.0279
     76 H         -2.858793   -7.773849   -8.248152 H        1 UNL1     0.0279
     77 H         -1.661862   -8.50848   -9.38963 H        1 UNL1     0.0279
     78 H         -0.558107   -6.23528   -9.46227 H        1 UNL1     0.1553
     79 H         -1.349552   -5.092911   -8.049884 H        1 UNL1     0.1484
     80 H         -0.767827   -1.670783   -6.503879 H        1 UNL1     0.0317
     81 H         0.204681   -2.29251   -7.829628 H        1 UNL1     0.0317
     82 H         -1.819223   -3.296503   -8.920276 H        1 UNL1     0.0428
     83 H         -1.976494   -1.573565   -8.658642 H        1 UNL1     0.0428
     84 H         -3.918294   -4.111096   -5.849107 H        1 UNL1     0.0428
     85 H         -3.086268   -4.895387   -7.145928 H        1 UNL1     0.0428
     86 H         -1.901146   -4.769837   -4.953994 H        1 UNL1     0.0317
     87 H         -1.902844   -3.066284   -4.938016 H        1 UNL1     0.0317
     88 H         -5.121256   -2.324705   -7.287815 H        1 UNL1     0.0429
     89 H         -4.26436   -1.653483   -8.677572 H        1 UNL1     0.0429
     90 H         -3.929616   -4.51588   -8.787349 H        1 UNL1     0.0308
     91 H         -6.668075   -3.682234   -7.794391 H        1 UNL1     0.0233
     92 H         -6.568207   -4.953091   -9.039559 H        1 UNL1     0.0233
     93 H         -5.79309   -5.177349   -7.486013 H        1 UNL1     0.0233
     94 H         -5.32845   -4.277365   -10.845193 H        1 UNL1     0.0233
     95 H         -5.596569   -2.584449   -10.401938 H        1 UNL1     0.0233
     96 H         -3.950754   -3.161032   -10.752419 H        1 UNL1     0.0233
     97 H         7.61893   -5.089117   -8.041336 H        1 UNL1     0.0280
     98 H         7.704838   -4.56004   -6.383058 H        1 UNL1     0.0280
     99 H         7.652783   -6.30902   -6.754666 H        1 UNL1     0.0280
     100 H         4.79572   -6.855724   -9.581575 H        1 UNL1     0.2922
     101 H         -1.116232   -5.788372   -0.347917 H        1 UNL1     0.0236
     102 H         0.686151   -5.920556   -0.345969 H        1 UNL1     0.0236
     103 H         -0.300326   -7.024406   -1.253645 H        1 UNL1     0.0236
     104 H         -1.710723   -4.257967   -0.104041 H        1 UNL1     0.2098
     105 H         0.056987   -0.529491   -1.651418 H        1 UNL1     0.0234
     106 H         -1.453343   -0.507204   -0.697739 H        1 UNL1     0.0234
     107 H         0.0   0.0   0.0 H        1 UNL1     0.0234
     108 H         1.972413   -3.404431   -0.111258 H        1 UNL1     0.2098
     109 H         1.348467   0.88796   -2.550506 H        1 UNL1     0.0234
     110 H         2.66619   -0.157964   -3.168932 H        1 UNL1     0.0234
     111 H         1.449506   -0.808337   -2.12704 H        1 UNL1     0.0234
     112 H         1.411164   4.363098   -0.041923 H        1 UNL1     0.0342
     113 H         1.122036   4.90294   1.65018 H        1 UNL1     0.0342
     114 H         2.628641   4.090259   1.216982 H        1 UNL1     0.0342
     115 H         3.119288   -1.24319   3.177847 H        1 UNL1     0.0234
     116 H         4.194993   -0.605574   1.930013 H        1 UNL1     0.0234
     117 H         3.313909   0.442579   3.060814 H        1 UNL1     0.0234
     118 H         4.495717   -1.863585   -5.603876 H        1 UNL1     0.0309
     119 H         4.8849   -1.216182   -3.979848 H        1 UNL1     0.0309
     120 H         6.127578   -1.836515   -5.044318 H        1 UNL1     0.0309
     121 H         6.490585   -0.208743   0.432176 H        1 UNL1     0.0524
     122 H         5.287505   0.892536   1.115286 H        1 UNL1     0.0524
     123 H         5.723296   -0.593002   1.996765 H        1 UNL1     0.0524
@<TRIPOS>BOND
     1     1     2    1
     2     1    42    1
     3     2     3    2
     4     3     4    1
     5     4     5    2
     6     5     7    1
     7     6    75    1
     8     6    76    1
     9     6    77    1
    10     7     9   am
    11     9    10    1
    12    10    11    2
    13    10    43    1
    14    11    14    1
    15    11    15    1
    16    12    13   ar
    17    12    27   ar
    18    12    43    1
    19    13    14    1
    20    13    30   ar
    21    14    17    2
    22    15    16    1
    23    16    17    1
    24    16    18    1
    25    16    22    1
    26    18    19    1
    27    19    20    1
    28    20    21    1
    29    21    22    1
    30    23    24    1
    31    23    88    1
    32    23    89    1
    33    24    25    1
    34    24    26    1
    35    24    90    1
    36    25    91    1
    37    25    92    1
    38    25    93    1
    39    26    94    1
    40    26    95    1
    41    26    96    1
    42    27    28   ar
    43    28    29   ar
    44    29    30   ar
    45    29    31    1
    46    30    33    1
    47    31    32    1
    48    32    33    1
    49    32    35    1
    50    34    97    1
    51    34    98    1
    52    34    99    1
    53    35    61    1
    54    36    37    1
    55    36    60    1
    56    37    38    1
    57    38    39    1
    58    39    40    1
    59    40    41    1
    60    41    42    1
    61    45   100    1
    62    47   101    1
    63    47   102    1
    64    47   103    1
    65    48   104    1
    66    49   105    1
    67    49   106    1
    68    49   107    1
    69    50   108    1
    70    51    59    1
    71    52   109    1
    72    52   110    1
    73    52   111    1
    74    53    54    1
    75    54    55    2
    76    54    56    1
    77    56   112    1
    78    56   113    1
    79    56   114    1
    80    57   115    1
    81    57   116    1
    82    57   117    1
    83    58   118    1
    84    58   119    1
    85    58   120    1
    86    59   121    1
    87    59   122    1
    88    59   123    1
    89    60    61    2
    90     1    47    1
    91     1    62    1
    92     2    63    1
    93     3    64    1
    94     4    65    1
    95     5     6    1
    96     7     8    2
    97     9    78    1
    98    15    79    1
    99    18    80    1
   100    18    81    1
   101    19    82    1
   102    19    83    1
   103    20    23    1
   104    21    84    1
   105    21    85    1
   106    22    86    1
   107    22    87    1
   108    27    45    1
   109    28    34    1
   110    32    58    1
   111    33    46    2
   112    36    51    1
   113    36    66    1
   114    37    52    1
   115    37    67    1
   116    38    53    1
   117    38    68    1
   118    42    48    1
   119    42    72    1
   120    43    44    2
   121    60    73    1
   122    61    74    1
   123    39    69    1
   124    39    57    1
   125    40    70    1
   126    40    50    1
   127    41    71    1
   128    41    49    1
