@<TRIPOS>MOLECULE
*****
 123 128 0 0 0
SMALL
GASTEIGER

@<TRIPOS>ATOM
     1 C         5.081438   1.793509   0.986947 C.3        1 UNL1     0.0009
     2 C         6.88869   1.382264   0.945052 C.2        1 UNL1     -0.0787
     3 C         8.104416   0.992896   1.628024 C.2        1 UNL1     -0.0649
     4 C         9.606626   0.615273   0.944561 C.2        1 UNL1     -0.0542
     5 C         10.845566   -0.039347   1.153316 C.2        1 UNL1     0.0115
     6 C         11.739072   -0.726992   2.222013 C.3        1 UNL1     -0.0348
     7 C         11.756256   -0.402392   -0.117837 C.2        1 UNL1     0.2441
     8 O         12.740755   0.248932   -0.438874 O.2        1 UNL1     -0.2702
     9 N         11.502755   -1.664409   -0.682816 N.am        1 UNL1     -0.2772
     10 C         10.506058   -1.576249   -1.62735 C.2        1 UNL1     0.1049
     11 C         9.267187   -1.604548   -1.170603 C.2        1 UNL1     0.0801
     12 C         9.779515   -0.261537   -3.6276 C.ar        1 UNL1     0.0753
     13 C         8.504313   -0.142611   -2.988597 C.ar        1 UNL1     0.0305
     14 C         8.168636   -0.922566   -1.799463 C.2        1 UNL1     0.0924
     15 N         8.804276   -1.915746   0.052261 N.pl3        1 UNL1     -0.3170
     16 C         7.367931   -1.96015   -0.019804 C.3        1 UNL1     0.1275
     17 N         7.016434   -1.013423   -1.141358 N.2        1 UNL1     -0.2557
     18 C         6.982456   -3.354049   -0.505764 C.3        1 UNL1     0.0016
     19 C         7.596143   -4.382577   0.430777 C.3        1 UNL1     0.0026
     20 N         7.100621   -4.142076   1.778978 N.3        1 UNL1     -0.3018
     21 C         7.369474   -2.80444   2.310782 C.3        1 UNL1     0.0026
     22 C         6.740254   -1.7874   1.35705 C.3        1 UNL1     0.0016
     23 C         7.382721   -5.235966   2.68698 C.3        1 UNL1     0.0012
     24 C         6.189068   -6.201585   2.754268 C.3        1 UNL1     -0.0339
     25 C         6.036778   -6.810535   4.157851 C.3        1 UNL1     -0.0615
     26 C         4.920584   -5.49322   2.311611 C.3        1 UNL1     -0.0615
     27 C         10.049347   0.39241   -4.827459 C.ar        1 UNL1     0.1347
     28 C         9.114027   1.157882   -5.50072 C.ar        1 UNL1     0.0342
     29 C         7.88169   1.300491   -4.828282 C.ar        1 UNL1     0.1435
     30 C         7.609392   0.680752   -3.608037 C.ar        1 UNL1     0.0774
     31 O         6.831745   1.924222   -5.405848 O.3        1 UNL1     -0.4436
     32 C         5.687777   1.465731   -4.669644 C.3        1 UNL1     0.3143
     33 C         6.231889   1.026242   -3.325395 C.2        1 UNL1     0.2504
     34 C         9.246798   1.678843   -6.904669 C.3        1 UNL1     -0.0327
     35 O         4.851616   2.604278   -4.429239 O.2        1 UNL1     -0.4528
     36 C         1.299148   1.27478   -4.286075 C.3        1 UNL1     0.0854
     37 C         0.686546   0.168644   -3.343363 C.3        1 UNL1     0.0236
     38 C         -0.599205   0.632055   -2.504412 C.3        1 UNL1     0.1131
     39 C         -0.547273   1.970919   -1.663571 C.3        1 UNL1     0.0200
     40 C         0.794083   2.338829   -0.742785 C.3        1 UNL1     0.0661
     41 C         1.553643   1.302567   0.364843 C.3        1 UNL1     0.0091
     42 C         3.317937   1.164266   0.848104 C.3        1 UNL1     0.0661
     43 C         10.775588   -1.176211   -3.016478 C.2        1 UNL1     0.2131
     44 O         11.706821   -1.66443   -3.630632 O.2        1 UNL1     -0.2851
     45 O         11.330308   0.261194   -5.359774 O.3        1 UNL1     -0.5056
     46 O         5.662877   0.990585   -2.257309 O.2        1 UNL1     -0.2836
     47 C         4.864373   3.209746   1.584555 C.3        1 UNL1     -0.0566
     48 O         3.035589   1.14326   2.303767 O.3        1 UNL1     -0.3909
     49 C         1.044876   -0.104609   0.144603 C.3        1 UNL1     -0.0577
     50 O         1.764921   3.012434   -1.518319 O.3        1 UNL1     -0.3910
     51 O         0.759049   2.569676   -4.148344 O.3        1 UNL1     -0.3753
     52 C         1.792683   -0.750311   -2.729415 C.3        1 UNL1     -0.0564
     53 O         -1.363728   -0.508283   -1.898226 O.3        1 UNL1     -0.4608
     54 C         -1.969225   -0.495307   -0.668944 C.2        1 UNL1     0.3042
     55 O         -3.161917   -0.669486   -0.42199 O.2        1 UNL1     -0.2512
     56 C         -1.011406   -0.296699   0.471166 C.3        1 UNL1     0.0332
     57 C         -1.172061   3.132868   -2.567833 C.3        1 UNL1     -0.0567
     58 C         5.152646   0.224615   -5.421172 C.3        1 UNL1     0.0210
     59 C         -0.071415   2.990843   -5.229461 C.3        1 UNL1     0.0372
     60 C         2.778782   1.416557   -4.210282 C.2        1 UNL1     -0.0208
     61 C         3.539929   2.50938   -4.13862 C.2        1 UNL1     0.0882
     62 H         5.103114   1.913688   -0.102915 H        1 UNL1     0.0365
     63 H         7.116677   1.573417   -0.10564 H        1 UNL1     0.0576
     64 H         8.108472   0.741765   2.69105 H        1 UNL1     0.0615
     65 H         9.522525   0.974914   -0.08455 H        1 UNL1     0.0622
     66 H         1.082074   0.921153   -5.303853 H        1 UNL1     0.0645
     67 H         0.241668   -0.561924   -4.041155 H        1 UNL1     0.0362
     68 H         -1.295902   0.834234   -3.332215 H        1 UNL1     0.0741
     69 H         -1.341154   1.951497   -0.928871 H        1 UNL1     0.0359
     70 H         0.367677   3.124466   -0.09009 H        1 UNL1     0.0600
     71 H         1.017565   1.584504   1.292253 H        1 UNL1     0.0348
     72 H         3.206003   2.15765   0.389874 H        1 UNL1     0.0602
     73 H         3.228424   0.46494   -4.349912 H        1 UNL1     0.0628
     74 H         3.161513   3.512398   -3.938636 H        1 UNL1     0.1022
     75 H         12.071895   -1.732056   1.866894 H        1 UNL1     0.0279
     76 H         12.68174   -0.236713   2.454547 H        1 UNL1     0.0279
     77 H         11.183942   -0.992086   3.133746 H        1 UNL1     0.0279
     78 H         11.183321   -2.30515   0.040711 H        1 UNL1     0.1553
     79 H         9.330802   -2.432922   0.732138 H        1 UNL1     0.1484
     80 H         5.888982   -3.435075   -0.52844 H        1 UNL1     0.0317
     81 H         7.330469   -3.521232   -1.530746 H        1 UNL1     0.0317
     82 H         8.695374   -4.354544   0.402212 H        1 UNL1     0.0428
     83 H         7.310341   -5.369243   0.064911 H        1 UNL1     0.0428
     84 H         6.91836   -2.623432   3.291366 H        1 UNL1     0.0428
     85 H         8.442973   -2.638474   2.476227 H        1 UNL1     0.0428
     86 H         6.839938   -0.834552   1.842984 H        1 UNL1     0.0317
     87 H         5.654592   -1.937242   1.31253 H        1 UNL1     0.0317
     88 H         8.25353   -5.782984   2.302587 H        1 UNL1     0.0429
     89 H         7.650018   -4.866597   3.685426 H        1 UNL1     0.0429
     90 H         6.344191   -7.015065   2.035658 H        1 UNL1     0.0308
     91 H         6.12074   -6.044824   4.934857 H        1 UNL1     0.0233
     92 H         5.074102   -7.317604   4.256569 H        1 UNL1     0.0233
     93 H         6.803291   -7.56543   4.370989 H        1 UNL1     0.0233
     94 H         4.040727   -6.010456   2.709297 H        1 UNL1     0.0233
     95 H         4.911415   -4.469021   2.69488 H        1 UNL1     0.0233
     96 H         4.840186   -5.462873   1.221389 H        1 UNL1     0.0233
     97 H         8.445104   1.327265   -7.547249 H        1 UNL1     0.0280
     98 H         9.205347   2.775163   -6.944914 H        1 UNL1     0.0280
     99 H         10.205459   1.343896   -7.333474 H        1 UNL1     0.0280
     100 H         12.026944   0.422893   -4.748076 H        1 UNL1     0.2922
     101 H         3.8729   3.573995   1.3163 H        1 UNL1     0.0236
     102 H         5.647542   3.915558   1.309857 H        1 UNL1     0.0236
     103 H         4.869746   3.199196   2.687303 H        1 UNL1     0.0236
     104 H         2.304475   1.769612   2.471475 H        1 UNL1     0.2098
     105 H         1.454493   -0.598021   -0.733219 H        1 UNL1     0.0234
     106 H         1.119858   -0.757268   1.014281 H        1 UNL1     0.0234
     107 H         -0.0   0.0   0.0 H        1 UNL1     0.0234
     108 H         2.600184   2.999774   -1.01241 H        1 UNL1     0.2098
     109 H         2.362992   -1.286812   -3.500535 H        1 UNL1     0.0234
     110 H         2.483068   -0.211898   -2.071219 H        1 UNL1     0.0234
     111 H         1.361261   -1.527276   -2.08432 H        1 UNL1     0.0234
     112 H         -1.48033   0.313295   1.249217 H        1 UNL1     0.0342
     113 H         -0.656367   -1.242662   0.877301 H        1 UNL1     0.0342
     114 H         -0.137767   0.252301   0.093648 H        1 UNL1     0.0342
     115 H         -1.700392   3.882158   -1.962344 H        1 UNL1     0.0234
     116 H         -0.438726   3.662494   -3.179197 H        1 UNL1     0.0234
     117 H         -1.982227   2.785875   -3.232038 H        1 UNL1     0.0234
     118 H         4.182794   0.422389   -5.910334 H        1 UNL1     0.0309
     119 H         5.856035   -0.1639   -6.164477 H        1 UNL1     0.0309
     120 H         4.930411   -0.610796   -4.748264 H        1 UNL1     0.0309
     121 H         -1.100529   2.743501   -4.970421 H        1 UNL1     0.0524
     122 H         -0.023212   4.080129   -5.394292 H        1 UNL1     0.0524
     123 H         0.217138   2.482575   -6.145155 H        1 UNL1     0.0524
@<TRIPOS>BOND
     1     1     2    1
     2     1    42    1
     3     2     3    2
     4     3     4    1
     5     4     5    2
     6     5     7    1
     7     6    75    1
     8     6    76    1
     9     6    77    1
    10     7     9   am
    11     9    10    1
    12    10    11    2
    13    10    43    1
    14    11    14    1
    15    11    15    1
    16    12    13   ar
    17    12    27   ar
    18    12    43    1
    19    13    14    1
    20    13    30   ar
    21    14    17    2
    22    15    16    1
    23    16    17    1
    24    16    18    1
    25    16    22    1
    26    18    19    1
    27    19    20    1
    28    20    21    1
    29    21    22    1
    30    23    24    1
    31    23    88    1
    32    23    89    1
    33    24    25    1
    34    24    26    1
    35    24    90    1
    36    25    91    1
    37    25    92    1
    38    25    93    1
    39    26    94    1
    40    26    95    1
    41    26    96    1
    42    27    28   ar
    43    28    29   ar
    44    29    30   ar
    45    29    31    1
    46    30    33    1
    47    31    32    1
    48    32    33    1
    49    32    35    1
    50    34    97    1
    51    34    98    1
    52    34    99    1
    53    35    61    1
    54    36    37    1
    55    36    60    1
    56    37    38    1
    57    38    39    1
    58    39    40    1
    59    40    41    1
    60    41    42    1
    61    45   100    1
    62    47   101    1
    63    47   102    1
    64    47   103    1
    65    48   104    1
    66    49   105    1
    67    49   106    1
    68    49   107    1
    69    50   108    1
    70    51    59    1
    71    52   109    1
    72    52   110    1
    73    52   111    1
    74    53    54    1
    75    54    55    2
    76    54    56    1
    77    56   112    1
    78    56   113    1
    79    56   114    1
    80    57   115    1
    81    57   116    1
    82    57   117    1
    83    58   118    1
    84    58   119    1
    85    58   120    1
    86    59   121    1
    87    59   122    1
    88    59   123    1
    89    60    61    2
    90     1    47    1
    91     1    62    1
    92     2    63    1
    93     3    64    1
    94     4    65    1
    95     5     6    1
    96     7     8    2
    97     9    78    1
    98    15    79    1
    99    18    80    1
   100    18    81    1
   101    19    82    1
   102    19    83    1
   103    20    23    1
   104    21    84    1
   105    21    85    1
   106    22    86    1
   107    22    87    1
   108    27    45    1
   109    28    34    1
   110    32    58    1
   111    33    46    2
   112    36    51    1
   113    36    66    1
   114    37    52    1
   115    37    67    1
   116    38    53    1
   117    38    68    1
   118    42    48    1
   119    42    72    1
   120    43    44    2
   121    60    73    1
   122    61    74    1
   123    39    69    1
   124    39    57    1
   125    40    70    1
   126    40    50    1
   127    41    71    1
   128    41    49    1
