@<TRIPOS>MOLECULE
*****
 123 128 0 0 0
SMALL
GASTEIGER

@<TRIPOS>ATOM
     1 C         0.139464   3.180399   3.149716 C.3        1 UNL1     0.0009
     2 C         -1.248184   4.112197   3.951729 C.2        1 UNL1     -0.0787
     3 C         -1.97442   5.346396   4.164757 C.2        1 UNL1     -0.0649
     4 C         -3.412662   5.571551   5.029118 C.2        1 UNL1     -0.0542
     5 C         -4.526334   6.42434   5.22803 C.2        1 UNL1     0.0115
     6 C         -5.110345   7.825868   4.899439 C.3        1 UNL1     -0.0348
     7 C         -5.834488   5.838053   5.950519 C.2        1 UNL1     0.2441
     8 O         -6.104947   6.063313   7.122114 O.2        1 UNL1     -0.2702
     9 N         -6.780892   5.266855   5.08207 N.am        1 UNL1     -0.2772
     10 C         -6.499411   3.936271   4.873176 C.2        1 UNL1     0.1049
     11 C         -5.59097   3.671184   3.951935 C.2        1 UNL1     0.0801
     12 C         -5.955874   1.811221   6.0757 C.ar        1 UNL1     0.0753
     13 C         -4.850754   1.676747   5.176126 C.ar        1 UNL1     0.0305
     14 C         -4.711237   2.53498   4.001807 C.2        1 UNL1     0.0924
     15 N         -5.037431   4.475264   3.028043 N.pl3        1 UNL1     -0.3170
     16 C         -4.233421   3.65766   2.158937 C.3        1 UNL1     0.1275
     17 N         -3.81741   2.488624   3.018013 N.2        1 UNL1     -0.2557
     18 C         -5.159949   3.088296   1.088856 C.3        1 UNL1     0.0016
     19 C         -5.864321   4.241375   0.391821 C.3        1 UNL1     0.0026
     20 N         -4.859594   5.116221   -0.196564 N.3        1 UNL1     -0.3018
     21 C         -3.883455   5.664838   0.74712 C.3        1 UNL1     0.0026
     22 C         -3.184576   4.489354   1.432467 C.3        1 UNL1     0.0016
     23 C         -5.421222   6.07229   -1.129918 C.3        1 UNL1     0.0012
     24 C         -5.896801   5.362419   -2.407284 C.3        1 UNL1     -0.0339
     25 C         -5.703549   6.249011   -3.64852 C.3        1 UNL1     -0.0615
     26 C         -5.186263   4.028444   -2.557047 C.3        1 UNL1     -0.0615
     27 C         -6.147197   0.913347   7.123238 C.ar        1 UNL1     0.1347
     28 C         -5.325701   -0.177199   7.346633 C.ar        1 UNL1     0.0342
     29 C         -4.216579   -0.261465   6.478353 C.ar        1 UNL1     0.1435
     30 C         -3.991955   0.651269   5.447005 C.ar        1 UNL1     0.0774
     31 O         -3.385765   -1.32654   6.497662 O.3        1 UNL1     -0.4436
     32 C         -2.719679   -1.289992   5.226494 C.3        1 UNL1     0.3143
     33 C         -2.811612   0.152777   4.772422 C.2        1 UNL1     0.2504
     34 C         -5.608365   -1.316188   8.286263 C.3        1 UNL1     -0.0327
     35 O         -1.3336   -1.565152   5.463817 O.2        1 UNL1     -0.4528
     36 C         -0.059223   -3.273797   2.323024 C.3        1 UNL1     0.0854
     37 C         -0.077463   -2.759967   0.831994 C.3        1 UNL1     0.0236
     38 C         1.352273   -2.741789   0.105862 C.3        1 UNL1     0.1131
     39 C         2.583594   -2.045367   0.813758 C.3        1 UNL1     0.0200
     40 C         2.400595   -0.568295   1.56689 C.3        1 UNL1     0.0661
     41 C         1.67177   0.807233   0.892838 C.3        1 UNL1     0.0091
     42 C         0.709167   2.153003   1.685116 C.3        1 UNL1     0.0661
     43 C         -6.941938   2.886061   5.802467 C.2        1 UNL1     0.2131
     44 O         -8.085536   2.872449   6.220482 O.2        1 UNL1     -0.2851
     45 O         -7.221497   1.141826   7.980625 O.3        1 UNL1     -0.5056
     46 O         -2.065889   0.760301   4.037122 O.2        1 UNL1     -0.2836
     47 C         1.488473   3.525842   3.835885 C.3        1 UNL1     -0.0566
     48 O         1.448063   3.240274   0.998828 O.3        1 UNL1     -0.3909
     49 C         0.916735   0.398795   -0.352391 C.3        1 UNL1     -0.0577
     50 O         1.971517   -0.73676   2.903017 O.3        1 UNL1     -0.3910
     51 O         1.215748   -3.485102   2.886255 O.3        1 UNL1     -0.3753
     52 C         -1.131529   -1.624508   0.62074 C.3        1 UNL1     -0.0564
     53 O         1.266805   -2.592622   -1.385034 O.3        1 UNL1     -0.4608
     54 C         2.132711   -1.869152   -2.162676 C.2        1 UNL1     0.3042
     55 O         1.944931   -0.756202   -2.652493 O.2        1 UNL1     -0.2512
     56 C         3.464615   -2.535535   -2.359348 C.3        1 UNL1     0.0332
     57 C         3.399802   -3.181359   1.589323 C.3        1 UNL1     -0.0567
     58 C         -3.557105   -2.168837   4.268435 C.3        1 UNL1     0.0210
     59 C         1.522556   -4.84702   3.181066 C.3        1 UNL1     0.0372
     60 C         -0.820464   -2.433438   3.287114 C.2        1 UNL1     -0.0208
     61 C         -0.494021   -2.007447   4.508061 C.2        1 UNL1     0.0882
     62 H         -0.227485   2.262759   3.625106 H        1 UNL1     0.0365
     63 H         -1.674415   3.334299   4.588653 H        1 UNL1     0.0576
     64 H         -1.724213   6.259206   3.619522 H        1 UNL1     0.0615
     65 H         -3.526143   4.641669   5.592966 H        1 UNL1     0.0622
     66 H         -0.581213   -4.240423   2.288263 H        1 UNL1     0.0645
     67 H         -0.594723   -3.562616   0.278139 H        1 UNL1     0.0362
     68 H         1.578993   -3.818796   0.119064 H        1 UNL1     0.0741
     69 H         3.342067   -1.840018   0.070146 H        1 UNL1     0.0359
     70 H         3.461694   -0.265512   1.653224 H        1 UNL1     0.0600
     71 H         2.560803   1.302131   0.455057 H        1 UNL1     0.0348
     72 H         1.279353   1.671844   2.493008 H        1 UNL1     0.0602
     73 H         -1.804539   -2.282934   2.918072 H        1 UNL1     0.0628
     74 H         0.506957   -2.070855   4.936148 H        1 UNL1     0.1022
     75 H         -4.344149   8.61991   5.071121 H        1 UNL1     0.0279
     76 H         -5.400865   8.000221   3.865868 H        1 UNL1     0.0279
     77 H         -5.900779   8.132171   5.600219 H        1 UNL1     0.0279
     78 H         -6.741605   5.733807   4.178471 H        1 UNL1     0.1553
     79 H         -5.438869   5.347431   2.736314 H        1 UNL1     0.1484
     80 H         -4.567598   2.494759   0.382032 H        1 UNL1     0.0317
     81 H         -5.895715   2.407513   1.530257 H        1 UNL1     0.0317
     82 H         -6.517307   4.796226   1.081504 H        1 UNL1     0.0428
     83 H         -6.52115   3.812949   -0.365858 H        1 UNL1     0.0428
     84 H         -3.093946   6.25307   0.269136 H        1 UNL1     0.0428
     85 H         -4.347843   6.366181   1.454071 H        1 UNL1     0.0428
     86 H         -2.391077   4.922612   2.012669 H        1 UNL1     0.0317
     87 H         -2.653246   3.883695   0.688181 H        1 UNL1     0.0317
     88 H         -6.287182   6.548316   -0.651581 H        1 UNL1     0.0429
     89 H         -4.704204   6.869799   -1.363666 H        1 UNL1     0.0429
     90 H         -6.962804   5.124767   -2.310464 H        1 UNL1     0.0308
     91 H         -4.71118   6.709687   -3.657637 H        1 UNL1     0.0233
     92 H         -5.837243   5.667126   -4.563476 H        1 UNL1     0.0233
     93 H         -6.433898   7.065808   -3.696128 H        1 UNL1     0.0233
     94 H         -5.207642   3.704472   -3.603193 H        1 UNL1     0.0233
     95 H         -4.139549   4.12676   -2.255907 H        1 UNL1     0.0233
     96 H         -5.658196   3.254108   -1.945777 H        1 UNL1     0.0233
     97 H         -5.627001   -2.272903   7.772863 H        1 UNL1     0.0280
     98 H         -4.841817   -1.408808   9.0667 H        1 UNL1     0.0280
     99 H         -6.588199   -1.163119   8.767503 H        1 UNL1     0.0280
     100 H         -7.28332   2.023229   8.304553 H        1 UNL1     0.2922
     101 H         1.796735   2.700413   4.477209 H        1 UNL1     0.0236
     102 H         1.466258   4.474045   4.371983 H        1 UNL1     0.0236
     103 H         2.308278   3.63465   3.106315 H        1 UNL1     0.0236
     104 H         2.387797   2.975894   0.954404 H        1 UNL1     0.2098
     105 H         0.685232   1.219487   -1.026692 H        1 UNL1     0.0234
     106 H         1.362018   -0.429143   -0.903906 H        1 UNL1     0.0234
     107 H         0.0   -0.0   0.0 H        1 UNL1     0.0234
     108 H         1.663414   0.133818   3.220718 H        1 UNL1     0.2098
     109 H         -2.15443   -1.96019   0.841425 H        1 UNL1     0.0234
     110 H         -0.91057   -0.719508   1.196844 H        1 UNL1     0.0234
     111 H         -1.150513   -1.278675   -0.421366 H        1 UNL1     0.0234
     112 H         4.112925   -1.8988   -2.968945 H        1 UNL1     0.0342
     113 H         3.941102   -2.7858   -1.412685 H        1 UNL1     0.0342
     114 H         3.301364   -3.473344   -2.908008 H        1 UNL1     0.0342
     115 H         4.478132   -2.971214   1.604527 H        1 UNL1     0.0234
     116 H         3.07983   -3.330997   2.622413 H        1 UNL1     0.0234
     117 H         3.380759   -4.161052   1.081603 H        1 UNL1     0.0234
     118 H         -3.033418   -3.102397   3.997834 H        1 UNL1     0.0309
     119 H         -4.546582   -2.415626   4.66622 H        1 UNL1     0.0309
     120 H         -3.731108   -1.687064   3.300074 H        1 UNL1     0.0309
     121 H         2.258084   -4.852702   3.985008 H        1 UNL1     0.0524
     122 H         0.640874   -5.407595   3.53381 H        1 UNL1     0.0524
     123 H         1.925265   -5.340548   2.301094 H        1 UNL1     0.0524
@<TRIPOS>BOND
     1     1     2    1
     2     1    42    1
     3     2     3    2
     4     3     4    1
     5     4     5    2
     6     5     7    1
     7     6    75    1
     8     6    76    1
     9     6    77    1
    10     7     9   am
    11     9    10    1
    12    10    11    2
    13    10    43    1
    14    11    14    1
    15    11    15    1
    16    12    13   ar
    17    12    27   ar
    18    12    43    1
    19    13    14    1
    20    13    30   ar
    21    14    17    2
    22    15    16    1
    23    16    17    1
    24    16    18    1
    25    16    22    1
    26    18    19    1
    27    19    20    1
    28    20    21    1
    29    21    22    1
    30    23    24    1
    31    23    88    1
    32    23    89    1
    33    24    25    1
    34    24    26    1
    35    24    90    1
    36    25    91    1
    37    25    92    1
    38    25    93    1
    39    26    94    1
    40    26    95    1
    41    26    96    1
    42    27    28   ar
    43    28    29   ar
    44    29    30   ar
    45    29    31    1
    46    30    33    1
    47    31    32    1
    48    32    33    1
    49    32    35    1
    50    34    97    1
    51    34    98    1
    52    34    99    1
    53    35    61    1
    54    36    37    1
    55    36    60    1
    56    37    38    1
    57    38    39    1
    58    39    40    1
    59    40    41    1
    60    41    42    1
    61    45   100    1
    62    47   101    1
    63    47   102    1
    64    47   103    1
    65    48   104    1
    66    49   105    1
    67    49   106    1
    68    49   107    1
    69    50   108    1
    70    51    59    1
    71    52   109    1
    72    52   110    1
    73    52   111    1
    74    53    54    1
    75    54    55    2
    76    54    56    1
    77    56   112    1
    78    56   113    1
    79    56   114    1
    80    57   115    1
    81    57   116    1
    82    57   117    1
    83    58   118    1
    84    58   119    1
    85    58   120    1
    86    59   121    1
    87    59   122    1
    88    59   123    1
    89    60    61    2
    90     1    47    1
    91     1    62    1
    92     2    63    1
    93     3    64    1
    94     4    65    1
    95     5     6    1
    96     7     8    2
    97     9    78    1
    98    15    79    1
    99    18    80    1
   100    18    81    1
   101    19    82    1
   102    19    83    1
   103    20    23    1
   104    21    84    1
   105    21    85    1
   106    22    86    1
   107    22    87    1
   108    27    45    1
   109    28    34    1
   110    32    58    1
   111    33    46    2
   112    36    51    1
   113    36    66    1
   114    37    52    1
   115    37    67    1
   116    38    53    1
   117    38    68    1
   118    42    48    1
   119    42    72    1
   120    43    44    2
   121    60    73    1
   122    61    74    1
   123    39    69    1
   124    39    57    1
   125    40    70    1
   126    40    50    1
   127    41    71    1
   128    41    49    1
