@<TRIPOS>MOLECULE
*****
 123 128 0 0 0
SMALL
GASTEIGER

@<TRIPOS>ATOM
     1 C         4.960952   2.321321   -0.002252 C.3        1 UNL1     0.0009
     2 C         6.412322   2.843828   -1.030625 C.2        1 UNL1     -0.0787
     3 C         7.755815   2.610889   -1.517259 C.2        1 UNL1     -0.0649
     4 C         8.612682   3.502014   -2.673993 C.2        1 UNL1     -0.0542
     5 C         9.69487   3.480763   -3.588047 C.2        1 UNL1     0.0115
     6 C         10.941971   2.672402   -4.040391 C.3        1 UNL1     -0.0348
     7 C         9.74345   4.576648   -4.760082 C.2        1 UNL1     0.2441
     8 O         10.467577   5.561829   -4.720303 O.2        1 UNL1     -0.2702
     9 N         9.096191   4.196826   -5.948755 N.am        1 UNL1     -0.2772
     10 C         7.76533   4.543245   -5.902663 C.2        1 UNL1     0.1049
     11 C         6.965807   3.700007   -5.27502 C.2        1 UNL1     0.0801
     12 C         6.228067   6.447169   -5.383793 C.ar        1 UNL1     0.0753
     13 C         5.510745   5.536592   -4.544206 C.ar        1 UNL1     0.0305
     14 C         5.780429   4.10069   -4.566706 C.2        1 UNL1     0.0924
     15 N         7.196172   2.446617   -4.847851 N.pl3        1 UNL1     -0.3170
     16 C         5.947296   1.904546   -4.382318 C.3        1 UNL1     0.1275
     17 N         5.154386   3.109553   -3.938498 N.2        1 UNL1     -0.2557
     18 C         5.21744   1.34171   -5.598142 C.3        1 UNL1     0.0016
     19 C         6.123191   0.331776   -6.284609 C.3        1 UNL1     0.0026
     20 N         6.45126   -0.723187   -5.335688 N.3        1 UNL1     -0.3018
     21 C         7.10171   -0.271304   -4.103988 C.3        1 UNL1     0.0026
     22 C         6.172542   0.73877   -3.428494 C.3        1 UNL1     0.0016
     23 C         7.056538   -1.879831   -5.965337 C.3        1 UNL1     0.0012
     24 C         6.019858   -2.637684   -6.809557 C.3        1 UNL1     -0.0339
     25 C         6.076315   -2.210996   -8.285635 C.3        1 UNL1     -0.0615
     26 C         6.21531   -4.135688   -6.65283 C.3        1 UNL1     -0.0615
     27 C         5.884082   7.795484   -5.44577 C.ar        1 UNL1     0.1347
     28 C         4.820883   8.339551   -4.74745 C.ar        1 UNL1     0.0342
     29 C         4.159869   7.434466   -3.890103 C.ar        1 UNL1     0.1435
     30 C         4.516263   6.089012   -3.790314 C.ar        1 UNL1     0.0774
     31 O         3.036483   7.784736   -3.226535 O.3        1 UNL1     -0.4436
     32 C         2.420153   6.537285   -2.873156 C.3        1 UNL1     0.3143
     33 C         3.547037   5.5242   -2.874697 C.2        1 UNL1     0.2504
     34 C         4.239006   9.710196   -4.954452 C.3        1 UNL1     -0.0327
     35 O         1.966619   6.654761   -1.518993 O.2        1 UNL1     -0.4528
     36 C         -1.07969   4.4071   -1.243106 C.3        1 UNL1     0.0854
     37 C         -1.208281   2.862803   -1.536591 C.3        1 UNL1     0.0236
     38 C         -1.791494   1.99063   -0.323775 C.3        1 UNL1     0.1131
     39 C         -1.158285   2.129995   1.119102 C.3        1 UNL1     0.0200
     40 C         0.497419   2.188795   1.31307 C.3        1 UNL1     0.0661
     41 C         1.616007   1.106873   0.637929 C.3        1 UNL1     0.0091
     42 C         3.340072   1.376659   0.072051 C.3        1 UNL1     0.0661
     43 C         7.293386   5.890819   -6.254326 C.2        1 UNL1     0.2131
     44 O         7.696196   6.443375   -7.261879 O.2        1 UNL1     -0.2851
     45 O         6.66181   8.623215   -6.252887 O.3        1 UNL1     -0.5056
     46 O         3.634934   4.493921   -2.244893 O.2        1 UNL1     -0.2836
     47 C         5.246865   2.575066   1.502357 C.3        1 UNL1     -0.0566
     48 O         3.876755   0.183598   0.770402 O.3        1 UNL1     -0.3909
     49 C         0.922887   0.292556   -0.431636 C.3        1 UNL1     -0.0577
     50 O         0.970168   3.514683   1.185582 O.3        1 UNL1     -0.3910
     51 O         -1.322904   4.803609   0.087705 O.3        1 UNL1     -0.3753
     52 C         -0.049514   2.345743   -2.450295 C.3        1 UNL1     -0.0564
     53 O         -2.230613   0.614385   -0.730531 O.3        1 UNL1     -0.4608
     54 C         -2.391037   -0.45157   0.115596 C.2        1 UNL1     0.3042
     55 O         -1.710196   -1.475232   0.164684 O.2        1 UNL1     -0.2512
     56 C         -3.503637   -0.269235   1.108365 C.3        1 UNL1     0.0332
     57 C         -2.042058   3.185194   1.933765 C.3        1 UNL1     -0.0567
     58 C         1.439243   6.194124   -4.0184 C.3        1 UNL1     0.0210
     59 C         -1.824974   6.131003   0.235408 C.3        1 UNL1     0.0372
     60 C         0.217796   5.017189   -1.642458 C.2        1 UNL1     -0.0208
     61 C         1.010382   5.868004   -0.989263 C.2        1 UNL1     0.0882
     62 H         4.410903   3.196658   -0.368234 H        1 UNL1     0.0365
     63 H         6.063841   3.811385   -1.397862 H        1 UNL1     0.0576
     64 H         8.29933   1.69346   -1.280568 H        1 UNL1     0.0615
     65 H         8.031511   4.422415   -2.776875 H        1 UNL1     0.0622
     66 H         -1.841784   4.874029   -1.882822 H        1 UNL1     0.0645
     67 H         -2.030858   2.79684   -2.269787 H        1 UNL1     0.0362
     68 H         -2.796249   2.433185   -0.245458 H        1 UNL1     0.0741
     69 H         -1.435153   1.264226   1.705783 H        1 UNL1     0.0359
     70 H         0.570355   1.972059   2.396014 H        1 UNL1     0.0600
     71 H         1.690108   0.367707   1.459574 H        1 UNL1     0.0348
     72 H         3.106775   2.215211   0.744151 H        1 UNL1     0.0602
     73 H         0.42032   4.774958   -2.656143 H        1 UNL1     0.0628
     74 H         0.905251   6.122466   0.065931 H        1 UNL1     0.1022
     75 H         11.04912   1.74308   -3.430543 H        1 UNL1     0.0279
     76 H         10.926672   2.285195   -5.05671 H        1 UNL1     0.0279
     77 H         11.887227   3.188458   -3.817054 H        1 UNL1     0.0279
     78 H         9.146027   3.18599   -6.057402 H        1 UNL1     0.1553
     79 H         7.945952   1.871869   -5.186122 H        1 UNL1     0.1484
     80 H         4.278853   0.879418   -5.269345 H        1 UNL1     0.0317
     81 H         4.945573   2.140963   -6.295949 H        1 UNL1     0.0317
     82 H         7.0337   0.804848   -6.680952 H        1 UNL1     0.0428
     83 H         5.584035   -0.055693   -7.149611 H        1 UNL1     0.0428
     84 H         7.26482   -1.071294   -3.375137 H        1 UNL1     0.0428
     85 H         8.1086   0.124894   -4.295079 H        1 UNL1     0.0428
     86 H         6.615887   0.945499   -2.472097 H        1 UNL1     0.0317
     87 H         5.221602   0.257777   -3.168774 H        1 UNL1     0.0317
     88 H         7.857335   -1.527643   -6.628649 H        1 UNL1     0.0429
     89 H         7.521585   -2.540572   -5.222419 H        1 UNL1     0.0429
     90 H         5.01637   -2.424447   -6.422575 H        1 UNL1     0.0308
     91 H         7.071737   -2.374792   -8.709201 H        1 UNL1     0.0233
     92 H         5.340376   -2.762364   -8.875547 H        1 UNL1     0.0233
     93 H         5.843416   -1.148019   -8.422286 H        1 UNL1     0.0233
     94 H         5.611323   -4.674645   -7.390773 H        1 UNL1     0.0233
     95 H         7.264204   -4.395287   -6.821326 H        1 UNL1     0.0233
     96 H         5.923964   -4.473835   -5.65446 H        1 UNL1     0.0233
     97 H         3.383895   9.891396   -4.310105 H        1 UNL1     0.0280
     98 H         4.961041   10.505085   -4.726258 H        1 UNL1     0.0280
     99 H         3.911667   9.817877   -6.001519 H        1 UNL1     0.0280
     100 H         7.5843   8.594868   -6.068958 H        1 UNL1     0.2922
     101 H         4.373054   2.302347   2.09374 H        1 UNL1     0.0236
     102 H         5.580217   3.591329   1.709889 H        1 UNL1     0.0236
     103 H         6.055834   1.930382   1.884646 H        1 UNL1     0.0236
     104 H         4.221034   0.478579   1.636098 H        1 UNL1     0.2098
     105 H         0.704211   0.842378   -1.343605 H        1 UNL1     0.0234
     106 H         1.407468   -0.654544   -0.668512 H        1 UNL1     0.0234
     107 H         0.0   -0.0   0.0 H        1 UNL1     0.0234
     108 H         0.790677   3.799789   0.268922 H        1 UNL1     0.2098
     109 H         0.939264   2.5031   -1.997229 H        1 UNL1     0.0234
     110 H         -0.160319   1.292969   -2.731601 H        1 UNL1     0.0234
     111 H         -0.024095   2.876781   -3.411179 H        1 UNL1     0.0234
     112 H         -3.575403   -1.15055   1.752942 H        1 UNL1     0.0342
     113 H         -3.381256   0.637634   1.698667 H        1 UNL1     0.0342
     114 H         -4.447618   -0.180221   0.55326 H        1 UNL1     0.0342
     115 H         -3.084799   2.853708   2.033741 H        1 UNL1     0.0234
     116 H         -1.667325   3.397363   2.937064 H        1 UNL1     0.0234
     117 H         -2.173617   4.147038   1.408894 H        1 UNL1     0.0234
     118 H         0.470841   6.711914   -3.903951 H        1 UNL1     0.0309
     119 H         1.845766   6.410256   -5.011491 H        1 UNL1     0.0309
     120 H         1.15961   5.134976   -4.029143 H        1 UNL1     0.0309
     121 H         -1.070105   6.814132   -0.153004 H        1 UNL1     0.0524
     122 H         -2.749902   6.29514   -0.342177 H        1 UNL1     0.0524
     123 H         -2.020545   6.344531   1.282428 H        1 UNL1     0.0524
@<TRIPOS>BOND
     1     1     2    1
     2     1    42    1
     3     2     3    2
     4     3     4    1
     5     4     5    2
     6     5     7    1
     7     6    75    1
     8     6    76    1
     9     6    77    1
    10     7     9   am
    11     9    10    1
    12    10    11    2
    13    10    43    1
    14    11    14    1
    15    11    15    1
    16    12    13   ar
    17    12    27   ar
    18    12    43    1
    19    13    14    1
    20    13    30   ar
    21    14    17    2
    22    15    16    1
    23    16    17    1
    24    16    18    1
    25    16    22    1
    26    18    19    1
    27    19    20    1
    28    20    21    1
    29    21    22    1
    30    23    24    1
    31    23    88    1
    32    23    89    1
    33    24    25    1
    34    24    26    1
    35    24    90    1
    36    25    91    1
    37    25    92    1
    38    25    93    1
    39    26    94    1
    40    26    95    1
    41    26    96    1
    42    27    28   ar
    43    28    29   ar
    44    29    30   ar
    45    29    31    1
    46    30    33    1
    47    31    32    1
    48    32    33    1
    49    32    35    1
    50    34    97    1
    51    34    98    1
    52    34    99    1
    53    35    61    1
    54    36    37    1
    55    36    60    1
    56    37    38    1
    57    38    39    1
    58    39    40    1
    59    40    41    1
    60    41    42    1
    61    45   100    1
    62    47   101    1
    63    47   102    1
    64    47   103    1
    65    48   104    1
    66    49   105    1
    67    49   106    1
    68    49   107    1
    69    50   108    1
    70    51    59    1
    71    52   109    1
    72    52   110    1
    73    52   111    1
    74    53    54    1
    75    54    55    2
    76    54    56    1
    77    56   112    1
    78    56   113    1
    79    56   114    1
    80    57   115    1
    81    57   116    1
    82    57   117    1
    83    58   118    1
    84    58   119    1
    85    58   120    1
    86    59   121    1
    87    59   122    1
    88    59   123    1
    89    60    61    2
    90     1    47    1
    91     1    62    1
    92     2    63    1
    93     3    64    1
    94     4    65    1
    95     5     6    1
    96     7     8    2
    97     9    78    1
    98    15    79    1
    99    18    80    1
   100    18    81    1
   101    19    82    1
   102    19    83    1
   103    20    23    1
   104    21    84    1
   105    21    85    1
   106    22    86    1
   107    22    87    1
   108    27    45    1
   109    28    34    1
   110    32    58    1
   111    33    46    2
   112    36    51    1
   113    36    66    1
   114    37    52    1
   115    37    67    1
   116    38    53    1
   117    38    68    1
   118    42    48    1
   119    42    72    1
   120    43    44    2
   121    60    73    1
   122    61    74    1
   123    39    69    1
   124    39    57    1
   125    40    70    1
   126    40    50    1
   127    41    71    1
   128    41    49    1
