@<TRIPOS>MOLECULE
*****
 123 128 0 0 0
SMALL
GASTEIGER

@<TRIPOS>ATOM
     1 C         -2.628793   -2.620027   -2.048391 C.3        1 UNL1     0.0009
     2 C         -2.18362   -4.121773   -3.040165 C.2        1 UNL1     -0.0787
     3 C         -2.010938   -4.775878   -4.320155 C.2        1 UNL1     -0.0649
     4 C         -1.394367   -6.323248   -4.623213 C.2        1 UNL1     -0.0542
     5 C         -0.8151   -7.171702   -5.59874 C.2        1 UNL1     0.0115
     6 C         -0.494914   -7.310854   -7.112491 C.3        1 UNL1     -0.0348
     7 C         -0.033642   -8.488758   -5.117414 C.2        1 UNL1     0.2441
     8 O         -0.519995   -9.609729   -5.175828 O.2        1 UNL1     -0.2702
     9 N         1.337448   -8.302447   -4.86932 N.am        1 UNL1     -0.2772
     10 C         1.540227   -7.904624   -3.567805 C.2        1 UNL1     0.1049
     11 C         1.387633   -6.615898   -3.322607 C.2        1 UNL1     0.0801
     12 C         0.937352   -8.464809   -1.205589 C.ar        1 UNL1     0.0753
     13 C         0.58508   -7.086154   -1.051241 C.ar        1 UNL1     0.0305
     14 C         0.923656   -6.091583   -2.066743 C.2        1 UNL1     0.0924
     15 N         1.269428   -5.582654   -4.174054 N.pl3        1 UNL1     -0.3170
     16 C         1.300775   -4.369931   -3.40038 C.3        1 UNL1     0.1275
     17 N         0.766166   -4.771074   -2.047235 N.2        1 UNL1     -0.2557
     18 C         2.767353   -4.008126   -3.186018 C.3        1 UNL1     0.0016
     19 C         3.44614   -3.905086   -4.542564 C.3        1 UNL1     0.0026
     20 N         2.765034   -2.886957   -5.330305 N.3        1 UNL1     -0.3018
     21 C         1.333776   -3.116164   -5.538473 C.3        1 UNL1     0.0026
     22 C         0.671105   -3.211784   -4.163112 C.3        1 UNL1     0.0016
     23 C         3.507008   -2.499344   -6.513468 C.3        1 UNL1     0.0012
     24 C         3.173973   -3.432861   -7.687943 C.3        1 UNL1     -0.0339
     25 C         4.430686   -3.783514   -8.501436 C.3        1 UNL1     -0.0615
     26 C         2.471496   -4.679649   -7.179193 C.3        1 UNL1     -0.0615
     27 C         0.719724   -9.384294   -0.18221 C.ar        1 UNL1     0.1347
     28 C         0.195351   -9.037133   1.050089 C.ar        1 UNL1     0.0342
     29 C         -0.18923   -7.684069   1.161808 C.ar        1 UNL1     0.1435
     30 C         -0.010654   -6.759193   0.132276 C.ar        1 UNL1     0.0774
     31 O         -0.613862   -7.166683   2.335267 O.3        1 UNL1     -0.4436
     32 C         -0.449581   -5.748285   2.186835 C.3        1 UNL1     0.3143
     33 C         -0.46245   -5.502318   0.691661 C.2        1 UNL1     0.2504
     34 C         0.166985   -9.909975   2.273789 C.3        1 UNL1     -0.0327
     35 O         -1.623579   -5.125149   2.722263 O.2        1 UNL1     -0.4528
     36 C         -0.499614   -1.748079   4.041424 C.3        1 UNL1     0.0854
     37 C         0.221225   -0.570398   3.279203 C.3        1 UNL1     0.0236
     38 C         -0.522202   0.847715   3.368739 C.3        1 UNL1     0.1131
     39 C         -2.061144   0.95098   3.017652 C.3        1 UNL1     0.0200
     40 C         -2.678628   0.160211   1.685047 C.3        1 UNL1     0.0661
     41 C         -2.045173   0.219551   0.112525 C.3        1 UNL1     0.0091
     42 C         -2.031025   -1.04824   -1.213337 C.3        1 UNL1     0.0661
     43 C         1.624456   -8.865974   -2.458271 C.2        1 UNL1     0.2131
     44 O         2.309137   -9.867852   -2.559213 O.2        1 UNL1     -0.2851
     45 O         1.048748   -10.715348   -0.430154 O.3        1 UNL1     -0.5056
     46 O         -0.792637   -4.501644   0.095438 O.2        1 UNL1     -0.2836
     47 C         -4.16744   -2.413822   -2.043232 C.3        1 UNL1     -0.0566
     48 O         -2.495335   -0.114767   -2.267927 O.3        1 UNL1     -0.3909
     49 C         -0.656144   0.815371   0.16812 C.3        1 UNL1     -0.0577
     50 O         -3.037285   -1.167341   2.01169 O.3        1 UNL1     -0.3910
     51 O         -1.780535   -1.457607   4.553574 O.3        1 UNL1     -0.3753
     52 C         0.914069   -1.064336   1.967356 C.3        1 UNL1     -0.0564
     53 O         0.337688   2.004107   2.949608 O.3        1 UNL1     -0.4608
     54 C         -0.081176   3.079843   2.21118 C.2        1 UNL1     0.3042
     55 O         -0.08955   4.262024   2.552084 O.2        1 UNL1     -0.2512
     56 C         -0.515905   2.720864   0.818751 C.3        1 UNL1     0.0332
     57 C         -2.876783   0.847983   4.389621 C.3        1 UNL1     -0.0567
     58 C         0.956243   -5.410951   2.735827 C.3        1 UNL1     0.0210
     59 C         -2.18475   -2.2711   5.653894 C.3        1 UNL1     0.0372
     60 C         -0.62311   -3.014428   3.269239 C.2        1 UNL1     -0.0208
     61 C         -1.660526   -3.839594   3.122225 C.2        1 UNL1     0.0882
     62 H         -2.384326   -3.174711   -1.134458 H        1 UNL1     0.0365
     63 H         -2.014111   -4.849043   -2.243413 H        1 UNL1     0.0576
     64 H         -2.122321   -4.231745   -5.260698 H        1 UNL1     0.0615
     65 H         -1.398488   -6.802501   -3.64047 H        1 UNL1     0.0622
     66 H         0.16298   -1.975064   4.888475 H        1 UNL1     0.0645
     67 H         1.129421   -0.380235   3.87718 H        1 UNL1     0.0362
     68 H         -0.458238   1.020747   4.453862 H        1 UNL1     0.0741
     69 H         -2.302679   1.98539   2.812554 H        1 UNL1     0.0359
     70 H         -3.6448   0.689824   1.579779 H        1 UNL1     0.0600
     71 H         -2.628369   1.066624   -0.298944 H        1 UNL1     0.0348
     72 H         -2.821542   -1.351934   -0.511791 H        1 UNL1     0.0602
     73 H         0.332091   -3.291462   2.897633 H        1 UNL1     0.0628
     74 H         -2.682368   -3.605058   3.422341 H        1 UNL1     0.1022
     75 H         -0.318611   -8.380828   -7.379149 H        1 UNL1     0.0279
     76 H         -1.284304   -7.024175   -7.803684 H        1 UNL1     0.0279
     77 H         0.46888   -6.857433   -7.386741 H        1 UNL1     0.0279
     78 H         1.697646   -7.567163   -5.474045 H        1 UNL1     0.1553
     79 H         1.547404   -5.620269   -5.13751 H        1 UNL1     0.1484
     80 H         2.825257   -3.060964   -2.636202 H        1 UNL1     0.0317
     81 H         3.269698   -4.760315   -2.568351 H        1 UNL1     0.0317
     82 H         3.455225   -4.871537   -5.067733 H        1 UNL1     0.0428
     83 H         4.491119   -3.648136   -4.366365 H        1 UNL1     0.0428
     84 H         0.83048   -2.29857   -6.063872 H        1 UNL1     0.0428
     85 H         1.148355   -3.994561   -6.172 H        1 UNL1     0.0428
     86 H         -0.38575   -3.245393   -4.352626 H        1 UNL1     0.0317
     87 H         0.801348   -2.268893   -3.618054 H        1 UNL1     0.0317
     88 H         3.209415   -1.477745   -6.783781 H        1 UNL1     0.0429
     89 H         4.586881   -2.478666   -6.31797 H        1 UNL1     0.0429
     90 H         2.45678   -2.934376   -8.350784 H        1 UNL1     0.0308
     91 H         4.818422   -2.90836   -9.031407 H        1 UNL1     0.0233
     92 H         5.212042   -4.18455   -7.851621 H        1 UNL1     0.0233
     93 H         4.237052   -4.553579   -9.257969 H        1 UNL1     0.0233
     94 H         2.27023   -4.588575   -6.106331 H        1 UNL1     0.0233
     95 H         1.513925   -4.804694   -7.692403 H        1 UNL1     0.0233
     96 H         3.078799   -5.574414   -7.342127 H        1 UNL1     0.0233
     97 H         -0.637468   -10.638444   2.236111 H        1 UNL1     0.0280
     98 H         1.092062   -10.489571   2.390226 H        1 UNL1     0.0280
     99 H         0.024909   -9.284319   3.170151 H        1 UNL1     0.0280
     100 H         1.940294   -10.941825   -0.231466 H        1 UNL1     0.2922
     101 H         -4.665846   -3.368947   -1.878965 H        1 UNL1     0.0236
     102 H         -4.535226   -1.908754   -2.93577 H        1 UNL1     0.0236
     103 H         -4.497275   -1.778154   -1.204585 H        1 UNL1     0.0236
     104 H         -2.514227   0.782159   -1.880451 H        1 UNL1     0.2098
     105 H         -0.457985   1.564568   -0.594277 H        1 UNL1     0.0234
     106 H         -0.35877   1.186522   1.148804 H        1 UNL1     0.0234
     107 H         0.0   0.0   0.0 H        1 UNL1     0.0234
     108 H         -3.422296   -1.569596   1.209365 H        1 UNL1     0.2098
     109 H         1.168175   -0.234428   1.293269 H        1 UNL1     0.0234
     110 H         1.806656   -1.671062   2.154214 H        1 UNL1     0.0234
     111 H         0.257878   -1.72752   1.388092 H        1 UNL1     0.0234
     112 H         -1.441637   3.248677   0.570193 H        1 UNL1     0.0342
     113 H         0.259854   2.924614   0.082186 H        1 UNL1     0.0342
     114 H         -0.725397   1.642643   0.791976 H        1 UNL1     0.0342
     115 H         -3.785373   1.46551   4.371932 H        1 UNL1     0.0234
     116 H         -3.175704   -0.168506   4.653145 H        1 UNL1     0.0234
     117 H         -2.342064   1.280316   5.252816 H        1 UNL1     0.0234
     118 H         0.926077   -5.114932   3.799062 H        1 UNL1     0.0309
     119 H         1.673433   -6.22856   2.611901 H        1 UNL1     0.0309
     120 H         1.401775   -4.539563   2.243597 H        1 UNL1     0.0309
     121 H         -2.010214   -1.701776   6.566453 H        1 UNL1     0.0524
     122 H         -3.258469   -2.519857   5.618056 H        1 UNL1     0.0524
     123 H         -1.609729   -3.19259   5.671235 H        1 UNL1     0.0524
@<TRIPOS>BOND
     1     1     2    1
     2     1    42    1
     3     2     3    2
     4     3     4    1
     5     4     5    2
     6     5     7    1
     7     6    75    1
     8     6    76    1
     9     6    77    1
    10     7     9   am
    11     9    10    1
    12    10    11    2
    13    10    43    1
    14    11    14    1
    15    11    15    1
    16    12    13   ar
    17    12    27   ar
    18    12    43    1
    19    13    14    1
    20    13    30   ar
    21    14    17    2
    22    15    16    1
    23    16    17    1
    24    16    18    1
    25    16    22    1
    26    18    19    1
    27    19    20    1
    28    20    21    1
    29    21    22    1
    30    23    24    1
    31    23    88    1
    32    23    89    1
    33    24    25    1
    34    24    26    1
    35    24    90    1
    36    25    91    1
    37    25    92    1
    38    25    93    1
    39    26    94    1
    40    26    95    1
    41    26    96    1
    42    27    28   ar
    43    28    29   ar
    44    29    30   ar
    45    29    31    1
    46    30    33    1
    47    31    32    1
    48    32    33    1
    49    32    35    1
    50    34    97    1
    51    34    98    1
    52    34    99    1
    53    35    61    1
    54    36    37    1
    55    36    60    1
    56    37    38    1
    57    38    39    1
    58    39    40    1
    59    40    41    1
    60    41    42    1
    61    45   100    1
    62    47   101    1
    63    47   102    1
    64    47   103    1
    65    48   104    1
    66    49   105    1
    67    49   106    1
    68    49   107    1
    69    50   108    1
    70    51    59    1
    71    52   109    1
    72    52   110    1
    73    52   111    1
    74    53    54    1
    75    54    55    2
    76    54    56    1
    77    56   112    1
    78    56   113    1
    79    56   114    1
    80    57   115    1
    81    57   116    1
    82    57   117    1
    83    58   118    1
    84    58   119    1
    85    58   120    1
    86    59   121    1
    87    59   122    1
    88    59   123    1
    89    60    61    2
    90     1    47    1
    91     1    62    1
    92     2    63    1
    93     3    64    1
    94     4    65    1
    95     5     6    1
    96     7     8    2
    97     9    78    1
    98    15    79    1
    99    18    80    1
   100    18    81    1
   101    19    82    1
   102    19    83    1
   103    20    23    1
   104    21    84    1
   105    21    85    1
   106    22    86    1
   107    22    87    1
   108    27    45    1
   109    28    34    1
   110    32    58    1
   111    33    46    2
   112    36    51    1
   113    36    66    1
   114    37    52    1
   115    37    67    1
   116    38    53    1
   117    38    68    1
   118    42    48    1
   119    42    72    1
   120    43    44    2
   121    60    73    1
   122    61    74    1
   123    39    69    1
   124    39    57    1
   125    40    70    1
   126    40    50    1
   127    41    71    1
   128    41    49    1
