@<TRIPOS>MOLECULE
*****
 123 128 0 0 0
SMALL
GASTEIGER

@<TRIPOS>ATOM
     1 C         -3.012965   3.170443   -3.277107 C.3        1 UNL1     0.0009
     2 C         -3.262418   3.747729   -5.021111 C.2        1 UNL1     -0.0787
     3 C         -3.15009   4.77897   -6.031047 C.2        1 UNL1     -0.0649
     4 C         -3.48722   4.656182   -7.685624 C.2        1 UNL1     -0.0542
     5 C         -3.26077   5.227342   -8.962172 C.2        1 UNL1     0.0115
     6 C         -2.67229   6.461079   -9.70035 C.3        1 UNL1     -0.0348
     7 C         -3.557814   4.346676   -10.271057 C.2        1 UNL1     0.2441
     8 O         -4.562292   4.488628   -10.954723 O.2        1 UNL1     -0.2702
     9 N         -2.468561   3.584323   -10.727673 N.am        1 UNL1     -0.2772
     10 C         -2.447271   2.356944   -10.106055 C.2        1 UNL1     0.1049
     11 C         -1.88783   2.319753   -8.910285 C.2        1 UNL1     0.0801
     12 C         -3.894089   0.398611   -9.532485 C.ar        1 UNL1     0.0753
     13 C         -3.4103   0.533479   -8.192198 C.ar        1 UNL1     0.0305
     14 C         -2.29172   1.415799   -7.867636 C.2        1 UNL1     0.0924
     15 N         -1.142919   3.241385   -8.276069 N.pl3        1 UNL1     -0.3170
     16 C         -0.634272   2.641848   -7.071043 C.3        1 UNL1     0.1275
     17 N         -1.654519   1.588899   -6.713107 N.2        1 UNL1     -0.2557
     18 C         0.639061   1.88844   -7.443469 C.3        1 UNL1     0.0016
     19 C         1.598443   2.857457   -8.115914 C.3        1 UNL1     0.0026
     20 N         1.885323   3.947414   -7.193568 N.3        1 UNL1     -0.3018
     21 C         0.713983   4.693667   -6.729414 C.3        1 UNL1     0.0026
     22 C         -0.234019   3.701733   -6.053208 C.3        1 UNL1     0.0016
     23 C         3.00914   4.760585   -7.613606 C.3        1 UNL1     0.0012
     24 C         4.310171   3.943635   -7.57277 C.3        1 UNL1     -0.0339
     25 C         4.771198   3.549337   -8.985583 C.3        1 UNL1     -0.0615
     26 C         5.386273   4.71492   -6.828523 C.3        1 UNL1     -0.0615
     27 C         -4.878758   -0.532572   -9.854113 C.ar        1 UNL1     0.1347
     28 C         -5.424761   -1.407718   -8.932131 C.ar        1 UNL1     0.0342
     29 C         -4.968605   -1.223474   -7.60958 C.ar        1 UNL1     0.1435
     30 C         -4.009032   -0.27038   -7.265998 C.ar        1 UNL1     0.0774
     31 O         -5.323288   -2.06907   -6.617525 O.3        1 UNL1     -0.4436
     32 C         -4.335873   -1.863985   -5.595848 C.3        1 UNL1     0.3143
     33 C         -3.785245   -0.47533   -5.85013 C.2        1 UNL1     0.2504
     34 C         -6.293438   -2.593154   -9.248741 C.3        1 UNL1     -0.0327
     35 O         -5.02532   -1.816001   -4.340614 O.2        1 UNL1     -0.4528
     36 C         -2.580585   -3.145262   -1.759059 C.3        1 UNL1     0.0854
     37 C         -1.134001   -2.630298   -1.398879 C.3        1 UNL1     0.0236
     38 C         -0.909095   -2.274452   0.148549 C.3        1 UNL1     0.1131
     39 C         -1.930792   -1.322651   0.89184 C.3        1 UNL1     0.0200
     40 C         -2.488419   0.062938   0.14912 C.3        1 UNL1     0.0661
     41 C         -1.528626   1.242503   -0.602567 C.3        1 UNL1     0.0091
     42 C         -1.87975   2.320513   -2.044791 C.3        1 UNL1     0.0661
     43 C         -3.248868   1.221264   -10.585666 C.2        1 UNL1     0.2131
     44 O         -3.274991   0.939628   -11.770038 O.2        1 UNL1     -0.2851
     45 O         -5.326664   -0.568331   -11.173029 O.3        1 UNL1     -0.5056
     46 O         -3.293052   0.296811   -5.058046 O.2        1 UNL1     -0.2836
     47 C         -4.074593   3.80805   -2.340952 C.3        1 UNL1     -0.0566
     48 O         -1.400976   3.557299   -1.381278 O.3        1 UNL1     -0.3909
     49 C         -0.135034   0.687385   -0.795542 C.3        1 UNL1     -0.0577
     50 O         -3.622166   -0.216841   -0.647163 O.3        1 UNL1     -0.3910
     51 O         -3.537788   -3.064879   -0.7272 O.3        1 UNL1     -0.3753
     52 C         -0.521459   -1.765093   -2.548297 C.3        1 UNL1     -0.0564
     53 O         0.535782   -2.129808   0.527675 O.3        1 UNL1     -0.4608
     54 C         1.213316   -2.939034   1.401764 C.2        1 UNL1     0.3042
     55 O         1.450125   -4.139979   1.277299 O.2        1 UNL1     -0.2512
     56 C         1.751118   -2.211689   2.601119 C.3        1 UNL1     0.0332
     57 C         -2.999361   -2.250328   1.637326 C.3        1 UNL1     -0.0567
     58 C         -3.216872   -2.899497   -5.854847 C.3        1 UNL1     0.0210
     59 C         -3.43451   -1.904857   0.097146 C.3        1 UNL1     0.0372
     60 C         -3.191282   -2.514965   -2.961114 C.2        1 UNL1     -0.0208
     61 C         -4.422366   -2.041029   -3.157484 C.2        1 UNL1     0.0882
     62 H         -3.401925   2.186979   -3.567314 H        1 UNL1     0.0365
     63 H         -3.775822   2.884542   -5.449822 H        1 UNL1     0.0576
     64 H         -2.657775   5.731781   -5.823958 H        1 UNL1     0.0615
     65 H         -4.04237   3.717966   -7.769545 H        1 UNL1     0.0622
     66 H         -2.440894   -4.205501   -2.012882 H        1 UNL1     0.0645
     67 H         -0.49522   -3.523217   -1.513836 H        1 UNL1     0.0362
     68 H         -1.063618   -3.27052   0.590693 H        1 UNL1     0.0741
     69 H         -1.460567   -0.93883   1.787372 H        1 UNL1     0.0359
     70 H         -2.893385   0.600517   1.027796 H        1 UNL1     0.0600
     71 H         -1.37085   1.934187   0.248101 H        1 UNL1     0.0348
     72 H         -2.857524   1.97306   -1.680716 H        1 UNL1     0.0602
     73 H         -2.515298   -2.590102   -3.776373 H        1 UNL1     0.0628
     74 H         -5.153998   -1.878008   -2.365413 H        1 UNL1     0.1022
     75 H         -3.347848   6.780392   -10.530226 H        1 UNL1     0.0279
     76 H         -2.571281   7.373154   -9.11641 H        1 UNL1     0.0279
     77 H         -1.748963   6.227105   -10.25028 H        1 UNL1     0.0279
     78 H         -1.598221   4.059356   -10.49761 H        1 UNL1     0.1553
     79 H         -0.682049   4.001514   -8.741618 H        1 UNL1     0.1484
     80 H         1.077173   1.456179   -6.535739 H        1 UNL1     0.0317
     81 H         0.416477   1.051074   -8.113489 H        1 UNL1     0.0317
     82 H         1.193633   3.238346   -9.065105 H        1 UNL1     0.0428
     83 H         2.498677   2.299215   -8.374747 H        1 UNL1     0.0428
     84 H         0.947836   5.453801   -5.977536 H        1 UNL1     0.0428
     85 H         0.241301   5.260263   -7.543574 H        1 UNL1     0.0428
     86 H         -1.010519   4.298391   -5.61158 H        1 UNL1     0.0317
     87 H         0.258404   3.244123   -5.186484 H        1 UNL1     0.0317
     88 H         2.830505   5.081831   -8.648103 H        1 UNL1     0.0429
     89 H         3.093196   5.669796   -7.004471 H        1 UNL1     0.0429
     90 H         4.141755   3.028757   -6.992386 H        1 UNL1     0.0308
     91 H         5.845541   3.343741   -9.010469 H        1 UNL1     0.0233
     92 H         4.229198   2.668201   -9.336932 H        1 UNL1     0.0233
     93 H         4.581292   4.339127   -9.72247 H        1 UNL1     0.0233
     94 H         6.294597   4.778885   -7.437368 H        1 UNL1     0.0233
     95 H         5.04361   5.733554   -6.626217 H        1 UNL1     0.0233
     96 H         5.639205   4.232682   -5.880134 H        1 UNL1     0.0233
     97 H         -6.990655   -2.813404   -8.445866 H        1 UNL1     0.0280
     98 H         -6.907784   -2.428776   -10.143624 H        1 UNL1     0.0280
     99 H         -5.661017   -3.481378   -9.410595 H        1 UNL1     0.0280
     100 H         -6.067401   -0.015535   -11.350082 H        1 UNL1     0.2922
     101 H         -3.69446   4.747388   -1.939954 H        1 UNL1     0.0236
     102 H         -4.412233   3.134311   -1.55415 H        1 UNL1     0.0236
     103 H         -4.992385   4.08704   -2.885024 H        1 UNL1     0.0236
     104 H         -0.430906   3.595378   -1.493017 H        1 UNL1     0.2098
     105 H         0.00853   0.148597   -1.728767 H        1 UNL1     0.0234
     106 H         0.66739   1.410362   -0.649439 H        1 UNL1     0.0234
     107 H         0.0   0.0   0.0 H        1 UNL1     0.0234
     108 H         -3.307907   -0.682933   -1.445767 H        1 UNL1     0.2098
     109 H         -1.202335   -0.967363   -2.876547 H        1 UNL1     0.0234
     110 H         0.451497   -1.333241   -2.290221 H        1 UNL1     0.0234
     111 H         -0.31632   -2.367686   -3.443141 H        1 UNL1     0.0234
     112 H         0.94922   -2.047606   3.327329 H        1 UNL1     0.0342
     113 H         2.589349   -2.736769   3.056645 H        1 UNL1     0.0342
     114 H         2.113704   -1.228192   2.271834 H        1 UNL1     0.0342
     115 H         -2.565235   -3.214402   1.93613 H        1 UNL1     0.0234
     116 H         -3.435871   -1.796264   2.529142 H        1 UNL1     0.0234
     117 H         -3.825397   -2.581686   0.984788 H        1 UNL1     0.0234
     118 H         -3.623146   -3.897682   -6.094794 H        1 UNL1     0.0309
     119 H         -2.52446   -2.594976   -6.64607 H        1 UNL1     0.0309
     120 H         -2.601296   -3.08396   -4.967634 H        1 UNL1     0.0309
     121 H         -2.496381   -1.97372   0.647172 H        1 UNL1     0.0524
     122 H         -3.405877   -0.973606   -0.49276 H        1 UNL1     0.0524
     123 H         -4.271579   -1.858991   0.78802 H        1 UNL1     0.0524
@<TRIPOS>BOND
     1     1     2    1
     2     1    42    1
     3     2     3    2
     4     3     4    1
     5     4     5    2
     6     5     7    1
     7     6    75    1
     8     6    76    1
     9     6    77    1
    10     7     9   am
    11     9    10    1
    12    10    11    2
    13    10    43    1
    14    11    14    1
    15    11    15    1
    16    12    13   ar
    17    12    27   ar
    18    12    43    1
    19    13    14    1
    20    13    30   ar
    21    14    17    2
    22    15    16    1
    23    16    17    1
    24    16    18    1
    25    16    22    1
    26    18    19    1
    27    19    20    1
    28    20    21    1
    29    21    22    1
    30    23    24    1
    31    23    88    1
    32    23    89    1
    33    24    25    1
    34    24    26    1
    35    24    90    1
    36    25    91    1
    37    25    92    1
    38    25    93    1
    39    26    94    1
    40    26    95    1
    41    26    96    1
    42    27    28   ar
    43    28    29   ar
    44    29    30   ar
    45    29    31    1
    46    30    33    1
    47    31    32    1
    48    32    33    1
    49    32    35    1
    50    34    97    1
    51    34    98    1
    52    34    99    1
    53    35    61    1
    54    36    37    1
    55    36    60    1
    56    37    38    1
    57    38    39    1
    58    39    40    1
    59    40    41    1
    60    41    42    1
    61    45   100    1
    62    47   101    1
    63    47   102    1
    64    47   103    1
    65    48   104    1
    66    49   105    1
    67    49   106    1
    68    49   107    1
    69    50   108    1
    70    51    59    1
    71    52   109    1
    72    52   110    1
    73    52   111    1
    74    53    54    1
    75    54    55    2
    76    54    56    1
    77    56   112    1
    78    56   113    1
    79    56   114    1
    80    57   115    1
    81    57   116    1
    82    57   117    1
    83    58   118    1
    84    58   119    1
    85    58   120    1
    86    59   121    1
    87    59   122    1
    88    59   123    1
    89    60    61    2
    90     1    47    1
    91     1    62    1
    92     2    63    1
    93     3    64    1
    94     4    65    1
    95     5     6    1
    96     7     8    2
    97     9    78    1
    98    15    79    1
    99    18    80    1
   100    18    81    1
   101    19    82    1
   102    19    83    1
   103    20    23    1
   104    21    84    1
   105    21    85    1
   106    22    86    1
   107    22    87    1
   108    27    45    1
   109    28    34    1
   110    32    58    1
   111    33    46    2
   112    36    51    1
   113    36    66    1
   114    37    52    1
   115    37    67    1
   116    38    53    1
   117    38    68    1
   118    42    48    1
   119    42    72    1
   120    43    44    2
   121    60    73    1
   122    61    74    1
   123    39    69    1
   124    39    57    1
   125    40    70    1
   126    40    50    1
   127    41    71    1
   128    41    49    1
