@<TRIPOS>MOLECULE
*****
 123 128 0 0 0
SMALL
GASTEIGER

@<TRIPOS>ATOM
     1 C         0.710241   -1.692494   5.065324 C.3        1 UNL1     0.0009
     2 C         0.628938   -3.197   6.14555 C.2        1 UNL1     -0.0787
     3 C         -0.000668   -3.943183   7.214593 C.2        1 UNL1     -0.0649
     4 C         0.35754   -5.512438   7.739458 C.2        1 UNL1     -0.0542
     5 C         -0.128485   -6.639185   8.447482 C.2        1 UNL1     0.0115
     6 C         -1.271041   -7.146975   9.369456 C.3        1 UNL1     -0.0348
     7 C         0.589352   -8.059217   8.234857 C.2        1 UNL1     0.2441
     8 O         1.375119   -8.535196   9.042656 O.2        1 UNL1     -0.2702
     9 N         0.059246   -8.836626   7.190456 N.am        1 UNL1     -0.2772
     10 C         0.678644   -8.529166   6.000861 C.2        1 UNL1     0.1049
     11 C         0.215971   -7.470991   5.36022 C.2        1 UNL1     0.0801
     12 C         2.932086   -8.222524   4.959081 C.ar        1 UNL1     0.0753
     13 C         2.443675   -6.974105   4.45757 C.ar        1 UNL1     0.0305
     14 C         1.027858   -6.620688   4.532451 C.2        1 UNL1     0.0924
     15 N         -0.902723   -6.755756   5.568762 N.pl3        1 UNL1     -0.3170
     16 C         -1.028858   -5.812625   4.489481 C.3        1 UNL1     0.1275
     17 N         0.38934   -5.564454   4.036879 N.2        1 UNL1     -0.2557
     18 C         -1.721031   -6.534136   3.337083 C.3        1 UNL1     0.0016
     19 C         -3.04229   -7.095231   3.838119 C.3        1 UNL1     0.0026
     20 N         -3.859066   -5.996292   4.334343 N.3        1 UNL1     -0.3018
     21 C         -3.250551   -5.203313   5.404513 C.3        1 UNL1     0.0026
     22 C         -1.927068   -4.645634   4.877939 C.3        1 UNL1     0.0016
     23 C         -5.240361   -6.375436   4.555512 C.3        1 UNL1     0.0012
     24 C         -5.569141   -6.360924   6.056662 C.3        1 UNL1     -0.0339
     25 C         -6.559793   -5.237697   6.404549 C.3        1 UNL1     -0.0615
     26 C         -6.091082   -7.720246   6.488635 C.3        1 UNL1     -0.0615
     27 C         4.259108   -8.60426   4.776302 C.ar        1 UNL1     0.1347
     28 C         5.177709   -7.84227   4.076593 C.ar        1 UNL1     0.0342
     29 C         4.687201   -6.595288   3.634324 C.ar        1 UNL1     0.1435
     30 C         3.370079   -6.183636   3.841575 C.ar        1 UNL1     0.0774
     31 O         5.426869   -5.787218   2.843805 O.3        1 UNL1     -0.4436
     32 C         4.473367   -4.902763   2.235984 C.3        1 UNL1     0.3143
     33 C         3.280421   -4.903705   3.170378 C.2        1 UNL1     0.2504
     34 C         6.538318   -8.295682   3.625749 C.3        1 UNL1     -0.0327
     35 O         5.031689   -3.583628   2.273561 O.2        1 UNL1     -0.4528
     36 C         3.628631   -1.773157   -0.753271 C.3        1 UNL1     0.0854
     37 C         2.124353   -1.519659   -1.153781 C.3        1 UNL1     0.0236
     38 C         1.740795   0.017608   -1.401652 C.3        1 UNL1     0.1131
     39 C         2.113341   1.104864   -0.314751 C.3        1 UNL1     0.0200
     40 C         1.869565   0.796965   1.306424 C.3        1 UNL1     0.0661
     41 C         0.438477   0.208855   2.001928 C.3        1 UNL1     0.0091
     42 C         0.181638   -0.873622   3.460585 C.3        1 UNL1     0.0661
     43 C         1.956713   -9.137488   5.602315 C.2        1 UNL1     0.2131
     44 O         2.130526   -10.337751   5.711374 O.2        1 UNL1     -0.2851
     45 O         4.665136   -9.814263   5.335294 O.3        1 UNL1     -0.5056
     46 O         2.454695   -4.034466   3.339057 O.2        1 UNL1     -0.2836
     47 C         1.279935   -0.487424   5.861087 C.3        1 UNL1     -0.0566
     48 O         -0.874421   -0.017388   4.052801 O.3        1 UNL1     -0.3909
     49 C         -0.460414   -0.311555   0.902536 C.3        1 UNL1     -0.0577
     50 O         2.985988   0.133227   1.863896 O.3        1 UNL1     -0.3910
     51 O         4.399407   -0.621707   -0.493468 O.3        1 UNL1     -0.3753
     52 C         1.155055   -2.512357   -0.432698 C.3        1 UNL1     -0.0564
     53 O         0.431002   0.203022   -2.110446 O.3        1 UNL1     -0.4608
     54 C         -0.329667   1.342717   -2.090213 C.2        1 UNL1     0.3042
     55 O         -0.330603   2.25479   -2.916023 O.2        1 UNL1     -0.2512
     56 C         -1.290427   1.404123   -0.937007 C.3        1 UNL1     0.0332
     57 C         3.505922   1.761899   -0.747415 C.3        1 UNL1     -0.0567
     58 C         4.059537   -5.558461   0.89795 C.3        1 UNL1     0.0210
     59 C         4.220508   -0.061411   0.806504 C.3        1 UNL1     0.0372
     60 C         3.825791   -2.691216   0.401483 C.2        1 UNL1     -0.0208
     61 C         4.629884   -2.587906   1.460494 C.2        1 UNL1     0.0882
     62 H         1.556099   -2.14397   4.532965 H        1 UNL1     0.0365
     63 H         1.518808   -3.735158   5.812402 H        1 UNL1     0.0576
     64 H         -0.918404   -3.593974   7.693051 H        1 UNL1     0.0615
     65 H         1.320797   -5.730606   7.270391 H        1 UNL1     0.0622
     66 H         4.063295   -2.285452   -1.623137 H        1 UNL1     0.0645
     67 H         2.04536   -1.932881   -2.174353 H        1 UNL1     0.0362
     68 H         2.390302   0.232522   -2.263902 H        1 UNL1     0.0741
     69 H         1.50844   1.98601   -0.482332 H        1 UNL1     0.0359
     70 H         1.931331   1.82672   1.707485 H        1 UNL1     0.0600
     71 H         -0.060176   1.16484   2.255687 H        1 UNL1     0.0348
     72 H         1.195691   -0.460931   3.56401 H        1 UNL1     0.0602
     73 H         3.291382   -3.591858   0.226838 H        1 UNL1     0.0628
     74 H         5.16604   -1.680818   1.741503 H        1 UNL1     0.1022
     75 H         -1.308965   -6.549445   10.312087 H        1 UNL1     0.0279
     76 H         -2.284239   -7.045771   8.987021 H        1 UNL1     0.0279
     77 H         -1.084217   -8.157722   9.760849 H        1 UNL1     0.0279
     78 H         -0.932004   -8.63266   7.081375 H        1 UNL1     0.1553
     79 H         -1.690505   -7.093415   6.090604 H        1 UNL1     0.1484
     80 H         -1.873035   -5.827255   2.512474 H        1 UNL1     0.0317
     81 H         -1.091824   -7.341004   2.946295 H        1 UNL1     0.0317
     82 H         -2.89175   -7.85887   4.615362 H        1 UNL1     0.0428
     83 H         -3.518323   -7.607018   3.00115 H        1 UNL1     0.0428
     84 H         -3.849423   -4.337481   5.703675 H        1 UNL1     0.0428
     85 H         -3.139467   -5.783779   6.330815 H        1 UNL1     0.0428
     86 H         -1.577365   -3.967407   5.63405 H        1 UNL1     0.0317
     87 H         -2.112034   -3.992086   4.016684 H        1 UNL1     0.0317
     88 H         -5.881203   -5.641037   4.050266 H        1 UNL1     0.0429
     89 H         -5.46116   -7.354537   4.111232 H        1 UNL1     0.0429
     90 H         -4.645427   -6.200288   6.625135 H        1 UNL1     0.0308
     91 H         -7.159896   -4.953225   5.535035 H        1 UNL1     0.0233
     92 H         -7.225286   -5.546582   7.214067 H        1 UNL1     0.0233
     93 H         -6.054888   -4.328859   6.753718 H        1 UNL1     0.0233
     94 H         -6.388284   -7.693218   7.542569 H        1 UNL1     0.0233
     95 H         -6.971026   -7.987862   5.896992 H        1 UNL1     0.0233
     96 H         -5.331895   -8.497384   6.363496 H        1 UNL1     0.0233
     97 H         6.639733   -9.37632   3.659928 H        1 UNL1     0.0280
     98 H         6.747786   -8.006864   2.587499 H        1 UNL1     0.0280
     99 H         7.309288   -7.855415   4.279099 H        1 UNL1     0.0280
     100 H         4.300113   -10.577766   4.923658 H        1 UNL1     0.2922
     101 H         1.460886   0.347485   5.184448 H        1 UNL1     0.0236
     102 H         2.164215   -0.739231   6.445574 H        1 UNL1     0.0236
     103 H         0.55728   -0.098895   6.597978 H        1 UNL1     0.0236
     104 H         -0.434169   0.638723   4.627838 H        1 UNL1     0.2098
     105 H         -0.552507   -1.394343   0.872543 H        1 UNL1     0.0234
     106 H         -1.445703   0.152649   0.861942 H        1 UNL1     0.0234
     107 H         0.0   0.0   0.0 H        1 UNL1     0.0234
     108 H         2.690451   -0.281879   2.69703 H        1 UNL1     0.2098
     109 H         1.195544   -2.412674   0.660982 H        1 UNL1     0.0234
     110 H         0.117073   -2.422268   -0.770664 H        1 UNL1     0.0234
     111 H         1.414559   -3.557941   -0.645674 H        1 UNL1     0.0234
     112 H         -2.270443   1.74268   -1.286712 H        1 UNL1     0.0342
     113 H         -1.368966   0.449947   -0.41814 H        1 UNL1     0.0342
     114 H         -0.915472   2.144616   -0.217116 H        1 UNL1     0.0342
     115 H         3.482108   2.123525   -1.784646 H        1 UNL1     0.0234
     116 H         3.818471   2.595954   -0.115977 H        1 UNL1     0.0234
     117 H         4.338263   1.038659   -0.792952 H        1 UNL1     0.0234
     118 H         4.864036   -5.504857   0.143686 H        1 UNL1     0.0309
     119 H         3.742431   -6.600144   1.009948 H        1 UNL1     0.0309
     120 H         3.225409   -5.037825   0.414965 H        1 UNL1     0.0309
     121 H         4.853309   -0.619534   1.49601 H        1 UNL1     0.0524
     122 H         4.53086   0.995745   0.852769 H        1 UNL1     0.0524
     123 H         3.179682   -0.136845   1.108308 H        1 UNL1     0.0524
@<TRIPOS>BOND
     1     1     2    1
     2     1    42    1
     3     2     3    2
     4     3     4    1
     5     4     5    2
     6     5     7    1
     7     6    75    1
     8     6    76    1
     9     6    77    1
    10     7     9   am
    11     9    10    1
    12    10    11    2
    13    10    43    1
    14    11    14    1
    15    11    15    1
    16    12    13   ar
    17    12    27   ar
    18    12    43    1
    19    13    14    1
    20    13    30   ar
    21    14    17    2
    22    15    16    1
    23    16    17    1
    24    16    18    1
    25    16    22    1
    26    18    19    1
    27    19    20    1
    28    20    21    1
    29    21    22    1
    30    23    24    1
    31    23    88    1
    32    23    89    1
    33    24    25    1
    34    24    26    1
    35    24    90    1
    36    25    91    1
    37    25    92    1
    38    25    93    1
    39    26    94    1
    40    26    95    1
    41    26    96    1
    42    27    28   ar
    43    28    29   ar
    44    29    30   ar
    45    29    31    1
    46    30    33    1
    47    31    32    1
    48    32    33    1
    49    32    35    1
    50    34    97    1
    51    34    98    1
    52    34    99    1
    53    35    61    1
    54    36    37    1
    55    36    60    1
    56    37    38    1
    57    38    39    1
    58    39    40    1
    59    40    41    1
    60    41    42    1
    61    45   100    1
    62    47   101    1
    63    47   102    1
    64    47   103    1
    65    48   104    1
    66    49   105    1
    67    49   106    1
    68    49   107    1
    69    50   108    1
    70    51    59    1
    71    52   109    1
    72    52   110    1
    73    52   111    1
    74    53    54    1
    75    54    55    2
    76    54    56    1
    77    56   112    1
    78    56   113    1
    79    56   114    1
    80    57   115    1
    81    57   116    1
    82    57   117    1
    83    58   118    1
    84    58   119    1
    85    58   120    1
    86    59   121    1
    87    59   122    1
    88    59   123    1
    89    60    61    2
    90     1    47    1
    91     1    62    1
    92     2    63    1
    93     3    64    1
    94     4    65    1
    95     5     6    1
    96     7     8    2
    97     9    78    1
    98    15    79    1
    99    18    80    1
   100    18    81    1
   101    19    82    1
   102    19    83    1
   103    20    23    1
   104    21    84    1
   105    21    85    1
   106    22    86    1
   107    22    87    1
   108    27    45    1
   109    28    34    1
   110    32    58    1
   111    33    46    2
   112    36    51    1
   113    36    66    1
   114    37    52    1
   115    37    67    1
   116    38    53    1
   117    38    68    1
   118    42    48    1
   119    42    72    1
   120    43    44    2
   121    60    73    1
   122    61    74    1
   123    39    69    1
   124    39    57    1
   125    40    70    1
   126    40    50    1
   127    41    71    1
   128    41    49    1
