@<TRIPOS>MOLECULE
*****
 123 128 0 0 0
SMALL
GASTEIGER

@<TRIPOS>ATOM
     1 C         -1.705189   2.847601   -2.533629 C.3        1 UNL1     0.0009
     2 C         -3.214472   3.875815   -2.214449 C.2        1 UNL1     -0.0787
     3 C         -4.622776   4.138324   -2.42377 C.2        1 UNL1     -0.0649
     4 C         -5.585193   5.31209   -1.673846 C.2        1 UNL1     -0.0542
     5 C         -6.911495   5.698802   -1.360072 C.2        1 UNL1     0.0115
     6 C         -8.40893   5.387083   -1.631807 C.3        1 UNL1     -0.0348
     7 C         -7.150641   6.786572   -0.203977 C.2        1 UNL1     0.2441
     8 O         -7.411612   7.958811   -0.436947 O.2        1 UNL1     -0.2702
     9 N         -7.298509   6.250896   1.087277 N.am        1 UNL1     -0.2772
     10 C         -6.071167   6.115382   1.694392 C.2        1 UNL1     0.1049
     11 C         -5.38912   5.025756   1.391494 C.2        1 UNL1     0.0801
     12 C         -3.95251   7.352263   2.183016 C.ar        1 UNL1     0.0753
     13 C         -3.260096   6.220015   1.647121 C.ar        1 UNL1     0.0305
     14 C         -3.952928   4.966941   1.355843 C.2        1 UNL1     0.0924
     15 N         -5.779836   3.913789   0.745429 N.pl3        1 UNL1     -0.3170
     16 C         -4.707788   2.95772   0.828486 C.3        1 UNL1     0.1275
     17 N         -3.460726   3.798365   0.954478 N.2        1 UNL1     -0.2557
     18 C         -4.859165   2.222905   2.156956 C.3        1 UNL1     0.0016
     19 C         -6.250476   1.613054   2.219618 C.3        1 UNL1     0.0026
     20 N         -6.412808   0.701705   1.095287 N.3        1 UNL1     -0.3018
     21 C         -6.224243   1.304493   -0.225871 C.3        1 UNL1     0.0026
     22 C         -4.818783   1.906805   -0.26824 C.3        1 UNL1     0.0016
     23 C         -7.57734   -0.15142   1.224461 C.3        1 UNL1     0.0012
     24 C         -8.702484   0.328515   0.294155 C.3        1 UNL1     -0.0339
     25 C         -8.286385   1.583519   -0.490628 C.3        1 UNL1     -0.0615
     26 C         -9.126045   -0.796432   -0.634215 C.3        1 UNL1     -0.0615
     27 C         -3.266342   8.500675   2.570885 C.ar        1 UNL1     0.1347
     28 C         -1.889356   8.618837   2.507654 C.ar        1 UNL1     0.0342
     29 C         -1.233148   7.510496   1.93134 C.ar        1 UNL1     0.1435
     30 C         -1.910843   6.367656   1.504883 C.ar        1 UNL1     0.0774
     31 O         0.114869   7.42741   1.900469 O.3        1 UNL1     -0.4436
     32 C         0.387778   6.031867   1.703356 C.3        1 UNL1     0.3143
     33 C         -0.864649   5.470103   1.061437 C.2        1 UNL1     0.2504
     34 C         -1.068496   9.711523   3.134012 C.3        1 UNL1     -0.0327
     35 O         1.434642   5.935931   0.729639 O.2        1 UNL1     -0.4528
     36 C         3.349009   2.767422   1.568591 C.3        1 UNL1     0.0854
     37 C         2.821685   1.285351   1.682249 C.3        1 UNL1     0.0236
     38 C         3.591451   0.221631   0.761541 C.3        1 UNL1     0.1131
     39 C         3.79319   0.517571   -0.779234 C.3        1 UNL1     0.0200
     40 C         2.541391   1.136323   -1.691694 C.3        1 UNL1     0.0661
     41 C         0.957263   0.531899   -1.744801 C.3        1 UNL1     0.0091
     42 C         -0.640071   1.400058   -1.99021 C.3        1 UNL1     0.0661
     43 C         -5.416083   7.229642   2.395566 C.2        1 UNL1     0.2131
     44 O         -6.043534   7.923833   3.174759 O.2        1 UNL1     -0.2851
     45 O         -4.01975   9.574843   3.039901 O.3        1 UNL1     -0.5056
     46 O         -0.971447   4.510852   0.330489 O.2        1 UNL1     -0.2836
     47 C         -1.152127   3.128844   -3.956656 C.3        1 UNL1     -0.0566
     48 O         -1.135983   0.440299   -3.006109 O.3        1 UNL1     -0.3909
     49 C         0.763741   -0.431517   -0.595074 C.3        1 UNL1     -0.0577
     50 O         2.517847   2.54764   -1.618527 O.3        1 UNL1     -0.3910
     51 O         4.301397   3.006573   0.557059 O.3        1 UNL1     -0.3753
     52 C         1.273571   1.233384   1.89577 C.3        1 UNL1     -0.0564
     53 O         3.320205   -1.205685   1.137737 O.3        1 UNL1     -0.4608
     54 C         4.271564   -2.176295   1.313123 C.2        1 UNL1     0.3042
     55 O         5.488927   -2.062393   1.175672 O.2        1 UNL1     -0.2512
     56 C         3.711514   -3.49022   1.778588 C.3        1 UNL1     0.0332
     57 C         5.241164   1.172741   -0.958949 C.3        1 UNL1     -0.0567
     58 C         0.546489   5.41397   3.112094 C.3        1 UNL1     0.0210
     59 C         5.648874   3.109797   1.01479 C.3        1 UNL1     0.0372
     60 C         2.289883   3.801614   1.414126 C.2        1 UNL1     -0.0208
     61 C         2.217696   4.848863   0.591445 C.2        1 UNL1     0.0882
     62 H         -1.144025   3.49251   -1.84668 H        1 UNL1     0.0365
     63 H         -2.790111   4.676754   -1.605446 H        1 UNL1     0.0576
     64 H         -5.252803   3.456434   -2.99927 H        1 UNL1     0.0615
     65 H         -4.86038   5.978867   -1.198939 H        1 UNL1     0.0622
     66 H         3.825013   2.966221   2.539129 H        1 UNL1     0.0645
     67 H         3.132636   0.966891   2.692424 H        1 UNL1     0.0362
     68 H         4.596547   0.287519   1.205348 H        1 UNL1     0.0741
     69 H         4.018897   -0.411522   -1.285445 H        1 UNL1     0.0359
     70 H         2.920657   0.91835   -2.708407 H        1 UNL1     0.0600
     71 H         1.045287   -0.166099   -2.600375 H        1 UNL1     0.0348
     72 H         0.136455   2.081481   -2.36702 H        1 UNL1     0.0602
     73 H         1.569418   3.681487   2.184676 H        1 UNL1     0.0628
     74 H         2.881481   5.012508   -0.258171 H        1 UNL1     0.1022
     75 H         -8.509854   4.483733   -2.280503 H        1 UNL1     0.0279
     76 H         -9.014229   5.12355   -0.767381 H        1 UNL1     0.0279
     77 H         -8.897477   6.153997   -2.250568 H        1 UNL1     0.0279
     78 H         -7.714685   5.323915   1.027432 H        1 UNL1     0.1553
     79 H         -6.739734   3.645573   0.628859 H        1 UNL1     0.1484
     80 H         -4.080978   1.453653   2.230733 H        1 UNL1     0.0317
     81 H         -4.707086   2.904539   3.000696 H        1 UNL1     0.0317
     82 H         -7.033846   2.385223   2.219541 H        1 UNL1     0.0428
     83 H         -6.337651   1.095567   3.175472 H        1 UNL1     0.0428
     84 H         -6.272524   0.583536   -1.047882 H        1 UNL1     0.0428
     85 H         -7.01511   2.03023   -0.460715 H        1 UNL1     0.0428
     86 H         -4.667826   2.218373   -1.28516 H        1 UNL1     0.0317
     87 H         -4.068883   1.118294   -0.130411 H        1 UNL1     0.0317
     88 H         -7.289755   -1.16893   0.929056 H        1 UNL1     0.0429
     89 H         -7.91988   -0.203597   2.265959 H        1 UNL1     0.0429
     90 H         -9.587132   0.569917   0.895266 H        1 UNL1     0.0308
     91 H         -8.562004   1.50202   -1.546324 H        1 UNL1     0.0233
     92 H         -8.751679   2.476339   -0.066384 H        1 UNL1     0.0233
     93 H         -7.20404   1.757386   -0.456927 H        1 UNL1     0.0233
     94 H         -8.302767   -1.061724   -1.306278 H        1 UNL1     0.0233
     95 H         -9.38479   -1.684682   -0.051099 H        1 UNL1     0.0233
     96 H         -9.988973   -0.509127   -1.241487 H        1 UNL1     0.0233
     97 H         -1.607306   10.2228   3.926167 H        1 UNL1     0.0280
     98 H         -0.149888   9.326256   3.595515 H        1 UNL1     0.0280
     99 H         -0.79564   10.454233   2.366531 H        1 UNL1     0.0280
     100 H         -4.902549   9.605251   2.715303 H        1 UNL1     0.2922
     101 H         -1.97114   3.400153   -4.622439 H        1 UNL1     0.0236
     102 H         -0.556081   2.308352   -4.354782 H        1 UNL1     0.0236
     103 H         -0.477029   4.000706   -3.973752 H        1 UNL1     0.0236
     104 H         -0.358715   -0.010952   -3.389772 H        1 UNL1     0.2098
     105 H         0.433787   -1.424027   -0.891495 H        1 UNL1     0.0234
     106 H         1.611129   -0.50305   0.086648 H        1 UNL1     0.0234
     107 H         0.0   0.0   0.0 H        1 UNL1     0.0234
     108 H         1.581002   2.823195   -1.631155 H        1 UNL1     0.2098
     109 H         0.858261   0.23728   1.68839 H        1 UNL1     0.0234
     110 H         0.965887   1.55774   2.895703 H        1 UNL1     0.0234
     111 H         0.748438   1.921043   1.219526 H        1 UNL1     0.0234
     112 H         3.218391   -3.362454   2.747015 H        1 UNL1     0.0342
     113 H         3.031787   -3.927303   1.048674 H        1 UNL1     0.0342
     114 H         4.547284   -4.190063   1.915967 H        1 UNL1     0.0342
     115 H         5.994476   0.677054   -0.331252 H        1 UNL1     0.0234
     116 H         5.6099   1.15971   -1.986525 H        1 UNL1     0.0234
     117 H         5.303745   2.210177   -0.587799 H        1 UNL1     0.0234
     118 H         -0.148554   4.571954   3.276204 H        1 UNL1     0.0309
     119 H         1.567899   5.081538   3.322838 H        1 UNL1     0.0309
     120 H         0.285303   6.11646   3.911091 H        1 UNL1     0.0309
     121 H         5.874986   4.168581   1.138101 H        1 UNL1     0.0524
     122 H         5.796932   2.62261   1.992933 H        1 UNL1     0.0524
     123 H         6.32643   2.663466   0.292432 H        1 UNL1     0.0524
@<TRIPOS>BOND
     1     1     2    1
     2     1    42    1
     3     2     3    2
     4     3     4    1
     5     4     5    2
     6     5     7    1
     7     6    75    1
     8     6    76    1
     9     6    77    1
    10     7     9   am
    11     9    10    1
    12    10    11    2
    13    10    43    1
    14    11    14    1
    15    11    15    1
    16    12    13   ar
    17    12    27   ar
    18    12    43    1
    19    13    14    1
    20    13    30   ar
    21    14    17    2
    22    15    16    1
    23    16    17    1
    24    16    18    1
    25    16    22    1
    26    18    19    1
    27    19    20    1
    28    20    21    1
    29    21    22    1
    30    23    24    1
    31    23    88    1
    32    23    89    1
    33    24    25    1
    34    24    26    1
    35    24    90    1
    36    25    91    1
    37    25    92    1
    38    25    93    1
    39    26    94    1
    40    26    95    1
    41    26    96    1
    42    27    28   ar
    43    28    29   ar
    44    29    30   ar
    45    29    31    1
    46    30    33    1
    47    31    32    1
    48    32    33    1
    49    32    35    1
    50    34    97    1
    51    34    98    1
    52    34    99    1
    53    35    61    1
    54    36    37    1
    55    36    60    1
    56    37    38    1
    57    38    39    1
    58    39    40    1
    59    40    41    1
    60    41    42    1
    61    45   100    1
    62    47   101    1
    63    47   102    1
    64    47   103    1
    65    48   104    1
    66    49   105    1
    67    49   106    1
    68    49   107    1
    69    50   108    1
    70    51    59    1
    71    52   109    1
    72    52   110    1
    73    52   111    1
    74    53    54    1
    75    54    55    2
    76    54    56    1
    77    56   112    1
    78    56   113    1
    79    56   114    1
    80    57   115    1
    81    57   116    1
    82    57   117    1
    83    58   118    1
    84    58   119    1
    85    58   120    1
    86    59   121    1
    87    59   122    1
    88    59   123    1
    89    60    61    2
    90     1    47    1
    91     1    62    1
    92     2    63    1
    93     3    64    1
    94     4    65    1
    95     5     6    1
    96     7     8    2
    97     9    78    1
    98    15    79    1
    99    18    80    1
   100    18    81    1
   101    19    82    1
   102    19    83    1
   103    20    23    1
   104    21    84    1
   105    21    85    1
   106    22    86    1
   107    22    87    1
   108    27    45    1
   109    28    34    1
   110    32    58    1
   111    33    46    2
   112    36    51    1
   113    36    66    1
   114    37    52    1
   115    37    67    1
   116    38    53    1
   117    38    68    1
   118    42    48    1
   119    42    72    1
   120    43    44    2
   121    60    73    1
   122    61    74    1
   123    39    69    1
   124    39    57    1
   125    40    70    1
   126    40    50    1
   127    41    71    1
   128    41    49    1
