@<TRIPOS>MOLECULE
*****
 123 128 0 0 0
SMALL
GASTEIGER

@<TRIPOS>ATOM
     1 C         -4.356712   -0.00941   2.946846 C.3        1 UNL1     0.0009
     2 C         -5.57999   1.058115   3.841841 C.2        1 UNL1     -0.0787
     3 C         -5.984805   1.779347   5.030115 C.2        1 UNL1     -0.0649
     4 C         -7.328373   2.790605   5.22643 C.2        1 UNL1     -0.0542
     5 C         -7.895479   3.829888   6.004479 C.2        1 UNL1     0.0115
     6 C         -7.737149   4.647448   7.315909 C.3        1 UNL1     -0.0348
     7 C         -9.107447   4.686051   5.392019 C.2        1 UNL1     0.2441
     8 O         -10.275105   4.508984   5.711001 O.2        1 UNL1     -0.2702
     9 N         -8.716354   5.823456   4.664345 N.am        1 UNL1     -0.2772
     10 C         -8.495626   5.497539   3.345869 C.2        1 UNL1     0.1049
     11 C         -7.310036   4.989267   3.062569 C.2        1 UNL1     0.0801
     12 C         -9.516246   4.300806   1.400747 C.ar        1 UNL1     0.0753
     13 C         -8.265433   3.618492   1.264645 C.ar        1 UNL1     0.0305
     14 C         -7.08035   4.037275   2.009796 C.2        1 UNL1     0.0924
     15 N         -6.195781   4.926357   3.811572 N.pl3        1 UNL1     -0.3170
     16 C         -5.132789   4.432248   2.977212 C.3        1 UNL1     0.1275
     17 N         -5.829696   3.590784   1.936067 N.2        1 UNL1     -0.2557
     18 C         -4.548716   5.629091   2.232814 C.3        1 UNL1     0.0016
     19 C         -4.114591   6.67083   3.25159 C.3        1 UNL1     0.0026
     20 N         -3.127044   6.07339   4.13976 N.3        1 UNL1     -0.3018
     21 C         -3.576915   4.877317   4.854879 C.3        1 UNL1     0.0026
     22 C         -4.003836   3.842609   3.812281 C.3        1 UNL1     0.0016
     23 C         -2.432083   7.053134   4.950792 C.3        1 UNL1     0.0012
     24 C         -2.021577   6.442036   6.299792 C.3        1 UNL1     -0.0339
     25 C         -1.910329   7.516945   7.393525 C.3        1 UNL1     -0.0615
     26 C         -2.995047   5.344157   6.691962 C.3        1 UNL1     -0.0615
     27 C         -10.607699   3.973791   0.599554 C.ar        1 UNL1     0.1347
     28 C         -10.557329   3.013605   -0.39521 C.ar        1 UNL1     0.0342
     29 C         -9.3306   2.321193   -0.478076 C.ar        1 UNL1     0.1435
     30 C         -8.24004   2.613123   0.342093 C.ar        1 UNL1     0.0774
     31 O         -9.087692   1.433698   -1.467194 O.3        1 UNL1     -0.4436
     32 C         -7.657494   1.31556   -1.505277 C.3        1 UNL1     0.3143
     33 C         -7.188512   1.734903   -0.126719 C.2        1 UNL1     0.2504
     34 C         -11.600299   2.784908   -1.453516 C.3        1 UNL1     -0.0327
     35 O         -7.348651   -0.076641   -1.645432 O.2        1 UNL1     -0.4528
     36 C         -4.070585   -0.228471   -3.553131 C.3        1 UNL1     0.0854
     37 C         -2.677724   0.418207   -3.193593 C.3        1 UNL1     0.0236
     38 C         -1.449485   -0.611255   -3.13543 C.3        1 UNL1     0.1131
     39 C         -1.573829   -1.93418   -2.277131 C.3        1 UNL1     0.0200
     40 C         -2.246526   -1.891269   -0.751328 C.3        1 UNL1     0.0661
     41 C         -1.82948   -0.811176   0.488463 C.3        1 UNL1     0.0091
     42 C         -2.851835   -0.083384   1.826563 C.3        1 UNL1     0.0661
     43 C         -9.586362   5.429221   2.362008 C.2        1 UNL1     0.2131
     44 O         -10.419307   6.315289   2.300172 O.2        1 UNL1     -0.2851
     45 O         -11.801954   4.65453   0.827118 O.3        1 UNL1     -0.5056
     46 O         -6.184026   1.401517   0.461255 O.2        1 UNL1     -0.2836
     47 C         -4.436433   -1.470939   3.464108 C.3        1 UNL1     -0.0566
     48 O         -1.865669   -0.375916   2.894748 O.3        1 UNL1     -0.3909
     49 C         -1.007554   0.313686   -0.10028 C.3        1 UNL1     -0.0577
     50 O         -3.651483   -2.030001   -0.818959 O.3        1 UNL1     -0.3910
     51 O         -4.10055   -1.636916   -3.606192 O.3        1 UNL1     -0.3753
     52 C         -2.827685   1.59189   -2.171376 C.3        1 UNL1     -0.0564
     53 O         -0.105412   0.056381   -3.14288 O.3        1 UNL1     -0.4608
     54 C         0.71272   0.184491   -4.234749 C.2        1 UNL1     0.3042
     55 O         1.24545   1.211917   -4.6524 O.2        1 UNL1     -0.2512
     56 C         0.999933   -1.117389   -4.927086 C.3        1 UNL1     0.0332
     57 C         -2.035138   -3.106683   -3.262324 C.3        1 UNL1     -0.0567
     58 C         -7.160234   2.353244   -2.538463 C.3        1 UNL1     0.0210
     59 C         -3.863344   -2.193227   -4.898522 C.3        1 UNL1     0.0372
     60 C         -5.202599   0.192485   -2.68336 C.2        1 UNL1     -0.0208
     61 C         -6.169222   -0.528272   -2.113366 C.2        1 UNL1     0.0882
     62 H         -4.993076   0.042119   2.055164 H        1 UNL1     0.0365
     63 H         -6.379322   1.117491   3.100213 H        1 UNL1     0.0576
     64 H         -5.330403   1.861109   5.900851 H        1 UNL1     0.0615
     65 H         -7.947291   2.574479   4.35138 H        1 UNL1     0.0622
     66 H         -4.302484   0.155665   -4.55648 H        1 UNL1     0.0645
     67 H         -2.421271   1.015666   -4.085688 H        1 UNL1     0.0362
     68 H         -1.438577   -0.944057   -4.184547 H        1 UNL1     0.0741
     69 H         -0.581313   -2.320845   -2.087897 H        1 UNL1     0.0359
     70 H         -1.891176   -2.863256   -0.358862 H        1 UNL1     0.0600
     71 H         -1.048774   -1.402739   1.005675 H        1 UNL1     0.0348
     72 H         -3.399232   -0.969895   1.474754 H        1 UNL1     0.0602
     73 H         -5.240531   1.252949   -2.648342 H        1 UNL1     0.0628
     74 H         -6.173532   -1.61721   -2.054775 H        1 UNL1     0.1022
     75 H         -8.321516   5.597329   7.258667 H        1 UNL1     0.0279
     76 H         -8.123871   4.188811   8.223195 H        1 UNL1     0.0279
     77 H         -6.715652   5.029572   7.458122 H        1 UNL1     0.0279
     78 H         -7.842994   6.186541   5.040495 H        1 UNL1     0.1553
     79 H         -6.032074   5.503474   4.615979 H        1 UNL1     0.1484
     80 H         -3.703969   5.291592   1.620227 H        1 UNL1     0.0317
     81 H         -5.284015   6.058088   1.543649 H        1 UNL1     0.0317
     82 H         -4.969747   7.06618   3.819322 H        1 UNL1     0.0428
     83 H         -3.702892   7.516176   2.699373 H        1 UNL1     0.0428
     84 H         -2.792624   4.402809   5.452826 H        1 UNL1     0.0428
     85 H         -4.365008   5.10949   5.584484 H        1 UNL1     0.0428
     86 H         -4.198747   2.940711   4.362351 H        1 UNL1     0.0317
     87 H         -3.149372   3.574077   3.179131 H        1 UNL1     0.0317
     88 H         -1.523992   7.35818   4.414498 H        1 UNL1     0.0429
     89 H         -3.039835   7.95592   5.093587 H        1 UNL1     0.0429
     90 H         -1.046441   5.952752   6.190597 H        1 UNL1     0.0308
     91 H         -0.99348   7.396031   7.97822 H        1 UNL1     0.0233
     92 H         -1.926675   8.517443   6.954953 H        1 UNL1     0.0233
     93 H         -2.746674   7.479949   8.102041 H        1 UNL1     0.0233
     94 H         -2.891839   5.110629   7.757161 H        1 UNL1     0.0233
     95 H         -4.022414   5.675925   6.517577 H        1 UNL1     0.0233
     96 H         -2.817301   4.429821   6.118931 H        1 UNL1     0.0233
     97 H         -11.975754   1.76602   -1.442126 H        1 UNL1     0.0280
     98 H         -12.477828   3.430111   -1.315991 H        1 UNL1     0.0280
     99 H         -11.166838   2.982362   -2.447607 H        1 UNL1     0.0280
     100 H         -11.757956   5.582762   0.67855 H        1 UNL1     0.2922
     101 H         -4.980061   -1.497662   4.408254 H        1 UNL1     0.0236
     102 H         -3.462176   -1.952751   3.539357 H        1 UNL1     0.0236
     103 H         -5.018684   -2.118529   2.787495 H        1 UNL1     0.0236
     104 H         -1.000534   -0.029763   2.600316 H        1 UNL1     0.2098
     105 H         -1.194033   0.501976   -1.154597 H        1 UNL1     0.0234
     106 H         -1.043434   1.246567   0.46219 H        1 UNL1     0.0234
     107 H         0.0   0.0   0.0 H        1 UNL1     0.0234
     108 H         -3.859449   -2.46555   -1.667968 H        1 UNL1     0.2098
     109 H         -3.799707   2.097256   -2.257926 H        1 UNL1     0.0234
     110 H         -2.667165   1.281634   -1.133244 H        1 UNL1     0.0234
     111 H         -2.071771   2.371229   -2.336213 H        1 UNL1     0.0234
     112 H         2.018875   -1.109942   -5.325893 H        1 UNL1     0.0342
     113 H         0.843024   -1.972972   -4.271952 H        1 UNL1     0.0342
     114 H         0.307367   -1.215491   -5.774372 H        1 UNL1     0.0342
     115 H         -1.379817   -3.183418   -4.140876 H        1 UNL1     0.0234
     116 H         -2.072127   -4.091884   -2.793218 H        1 UNL1     0.0234
     117 H         -3.012035   -2.920409   -3.740775 H        1 UNL1     0.0234
     118 H         -6.109443   2.642833   -2.362444 H        1 UNL1     0.0309
     119 H         -7.269969   2.015253   -3.5738 H        1 UNL1     0.0309
     120 H         -7.699057   3.304703   -2.471368 H        1 UNL1     0.0309
     121 H         -3.376445   -1.428076   -5.502534 H        1 UNL1     0.0524
     122 H         -3.189551   -3.065383   -4.861322 H        1 UNL1     0.0524
     123 H         -4.801713   -2.491937   -5.35714 H        1 UNL1     0.0524
@<TRIPOS>BOND
     1     1     2    1
     2     1    42    1
     3     2     3    2
     4     3     4    1
     5     4     5    2
     6     5     7    1
     7     6    75    1
     8     6    76    1
     9     6    77    1
    10     7     9   am
    11     9    10    1
    12    10    11    2
    13    10    43    1
    14    11    14    1
    15    11    15    1
    16    12    13   ar
    17    12    27   ar
    18    12    43    1
    19    13    14    1
    20    13    30   ar
    21    14    17    2
    22    15    16    1
    23    16    17    1
    24    16    18    1
    25    16    22    1
    26    18    19    1
    27    19    20    1
    28    20    21    1
    29    21    22    1
    30    23    24    1
    31    23    88    1
    32    23    89    1
    33    24    25    1
    34    24    26    1
    35    24    90    1
    36    25    91    1
    37    25    92    1
    38    25    93    1
    39    26    94    1
    40    26    95    1
    41    26    96    1
    42    27    28   ar
    43    28    29   ar
    44    29    30   ar
    45    29    31    1
    46    30    33    1
    47    31    32    1
    48    32    33    1
    49    32    35    1
    50    34    97    1
    51    34    98    1
    52    34    99    1
    53    35    61    1
    54    36    37    1
    55    36    60    1
    56    37    38    1
    57    38    39    1
    58    39    40    1
    59    40    41    1
    60    41    42    1
    61    45   100    1
    62    47   101    1
    63    47   102    1
    64    47   103    1
    65    48   104    1
    66    49   105    1
    67    49   106    1
    68    49   107    1
    69    50   108    1
    70    51    59    1
    71    52   109    1
    72    52   110    1
    73    52   111    1
    74    53    54    1
    75    54    55    2
    76    54    56    1
    77    56   112    1
    78    56   113    1
    79    56   114    1
    80    57   115    1
    81    57   116    1
    82    57   117    1
    83    58   118    1
    84    58   119    1
    85    58   120    1
    86    59   121    1
    87    59   122    1
    88    59   123    1
    89    60    61    2
    90     1    47    1
    91     1    62    1
    92     2    63    1
    93     3    64    1
    94     4    65    1
    95     5     6    1
    96     7     8    2
    97     9    78    1
    98    15    79    1
    99    18    80    1
   100    18    81    1
   101    19    82    1
   102    19    83    1
   103    20    23    1
   104    21    84    1
   105    21    85    1
   106    22    86    1
   107    22    87    1
   108    27    45    1
   109    28    34    1
   110    32    58    1
   111    33    46    2
   112    36    51    1
   113    36    66    1
   114    37    52    1
   115    37    67    1
   116    38    53    1
   117    38    68    1
   118    42    48    1
   119    42    72    1
   120    43    44    2
   121    60    73    1
   122    61    74    1
   123    39    69    1
   124    39    57    1
   125    40    70    1
   126    40    50    1
   127    41    71    1
   128    41    49    1
