@<TRIPOS>MOLECULE
*****
 123 128 0 0 0
SMALL
GASTEIGER

@<TRIPOS>ATOM
     1 C         3.906197   -0.375768   -1.779481 C.3        1 UNL1     0.0009
     2 C         5.506898   -0.79992   -0.945882 C.2        1 UNL1     -0.0787
     3 C         6.811048   -0.405752   -0.456118 C.2        1 UNL1     -0.0649
     4 C         7.913614   -1.334613   0.431532 C.2        1 UNL1     -0.0542
     5 C         9.03715   -1.293425   1.293535 C.2        1 UNL1     0.0115
     6 C         10.130588   -0.364501   1.889202 C.3        1 UNL1     -0.0348
     7 C         9.391555   -2.590561   2.170362 C.2        1 UNL1     0.2441
     8 O         10.291101   -3.366204   1.877581 O.2        1 UNL1     -0.2702
     9 N         8.775199   -2.634332   3.433034 N.am        1 UNL1     -0.2772
     10 C         7.539696   -3.233406   3.34379 C.2        1 UNL1     0.1049
     11 C         6.543291   -2.457684   2.956936 C.2        1 UNL1     0.0801
     12 C         6.374427   -5.25032   2.431903 C.ar        1 UNL1     0.0753
     13 C         5.42874   -4.345323   1.852883 C.ar        1 UNL1     0.0305
     14 C         5.40982   -2.92799   2.207649 C.2        1 UNL1     0.0924
     15 N         6.487524   -1.120513   2.832875 N.pl3        1 UNL1     -0.3170
     16 C         5.124069   -0.762438   2.544732 C.3        1 UNL1     0.1275
     17 N         4.553626   -1.974972   1.850413 N.2        1 UNL1     -0.2557
     18 C         4.392864   -0.655665   3.879513 C.3        1 UNL1     0.0016
     19 C         5.130825   0.340202   4.759997 C.3        1 UNL1     0.0026
     20 N         5.169723   1.627208   4.079459 N.3        1 UNL1     -0.3018
     21 C         5.800153   1.612844   2.757823 C.3        1 UNL1     0.0026
     22 C         5.040179   0.609435   1.888626 C.3        1 UNL1     0.0016
     23 C         5.58066   2.712238   4.948069 C.3        1 UNL1     0.0012
     24 C         6.112493   2.163044   6.281221 C.3        1 UNL1     -0.0339
     25 C         7.020829   0.941657   6.063975 C.3        1 UNL1     -0.0615
     26 C         6.827003   3.261545   7.049043 C.3        1 UNL1     -0.0615
     27 C         6.309896   -6.619088   2.182045 C.ar        1 UNL1     0.1347
     28 C         5.324964   -7.202319   1.404999 C.ar        1 UNL1     0.0342
     29 C         4.434023   -6.286681   0.805836 C.ar        1 UNL1     0.1435
     30 C         4.508342   -4.909472   1.017947 C.ar        1 UNL1     0.0774
     31 O         3.354591   -6.706116   0.110202 O.3        1 UNL1     -0.4436
     32 C         2.478274   -5.569432   0.080355 C.3        1 UNL1     0.3143
     33 C         3.379084   -4.369137   0.290224 C.2        1 UNL1     0.2504
     34 C         5.043523   -8.675178   1.297406 C.3        1 UNL1     -0.0327
     35 O         1.954294   -5.470331   -1.249636 O.2        1 UNL1     -0.4528
     36 C         -1.48861   -3.911161   -0.898228 C.3        1 UNL1     0.0854
     37 C         -1.897361   -2.535819   -0.243338 C.3        1 UNL1     0.0236
     38 C         -2.733069   -1.554721   -1.197688 C.3        1 UNL1     0.1131
     39 C         -2.197562   -1.227719   -2.64978 C.3        1 UNL1     0.0200
     40 C         -0.582865   -0.891404   -2.898949 C.3        1 UNL1     0.0661
     41 C         0.347964   0.220274   -2.018415 C.3        1 UNL1     0.0091
     42 C         2.129596   0.198457   -1.581706 C.3        1 UNL1     0.0661
     43 C         7.372231   -4.693908   3.379032 C.2        1 UNL1     0.2131
     44 O         7.952623   -5.362556   4.21497 O.2        1 UNL1     -0.2851
     45 O         7.295721   -7.425238   2.747473 O.3        1 UNL1     -0.5056
     46 O         3.212685   -3.228314   -0.079489 O.2        1 UNL1     -0.2836
     47 C         4.120219   -0.216663   -3.308815 C.3        1 UNL1     -0.0566
     48 O         2.36427   1.60403   -1.992079 O.3        1 UNL1     -0.3909
     49 C         -0.408351   0.607036   -0.767057 C.3        1 UNL1     -0.0577
     50 O         0.151313   -2.081812   -3.102993 O.3        1 UNL1     -0.3910
     51 O         -1.750045   -4.038476   -2.277675 O.3        1 UNL1     -0.3753
     52 C         -0.797147   -2.006878   0.733748 C.3        1 UNL1     -0.0564
     53 O         -3.403307   -0.430168   -0.463872 O.3        1 UNL1     -0.4608
     54 C         -4.622746   0.109815   -0.779019 C.2        1 UNL1     0.3042
     55 O         -4.842367   1.11892   -1.447832 O.2        1 UNL1     -0.2512
     56 C         -5.785769   -0.693688   -0.270615 C.3        1 UNL1     0.0332
     57 C         -2.914936   -2.23302   -3.666106 C.3        1 UNL1     -0.0567
     58 C         1.539791   -5.708452   1.301606 C.3        1 UNL1     0.0210
     59 C         -2.982441   -4.682649   -2.597219 C.3        1 UNL1     0.0372
     60 C         -0.069276   -4.308731   -0.691858 C.2        1 UNL1     -0.0208
     61 C         0.823449   -4.803446   -1.55037 C.2        1 UNL1     0.0882
     62 H         3.570044   -1.4068   -1.616125 H        1 UNL1     0.0365
     63 H         5.386067   -1.876536   -0.808883 H        1 UNL1     0.0576
     64 H         7.142417   0.634699   -0.483758 H        1 UNL1     0.0615
     65 H         7.535756   -2.355551   0.329597 H        1 UNL1     0.0622
     66 H         -2.091773   -4.660282   -0.366196 H        1 UNL1     0.0645
     67 H         -2.657914   -2.811977   0.507566 H        1 UNL1     0.0362
     68 H         -3.633349   -2.169328   -1.350256 H        1 UNL1     0.0741
     69 H         -2.684539   -0.329861   -3.006309 H        1 UNL1     0.0359
     70 H         -0.637684   -0.425003   -3.901209 H        1 UNL1     0.0600
     71 H         0.210962   1.124705   -2.643069 H        1 UNL1     0.0348
     72 H         2.015943   -0.496171   -2.426627 H        1 UNL1     0.0602
     73 H         0.158567   -4.26499   0.344204 H        1 UNL1     0.0628
     74 H         0.690011   -4.82894   -2.632397 H        1 UNL1     0.1022
     75 H         10.18525   -0.484338   2.998114 H        1 UNL1     0.0279
     76 H         11.155028   -0.561734   1.581483 H        1 UNL1     0.0279
     77 H         9.87799   0.702123   1.7986 H        1 UNL1     0.0279
     78 H         8.632187   -1.687017   3.776864 H        1 UNL1     0.1553
     79 H         7.132449   -0.492618   3.276443 H        1 UNL1     0.1484
     80 H         3.358919   -0.339106   3.696444 H        1 UNL1     0.0317
     81 H         4.338987   -1.630849   4.375261 H        1 UNL1     0.0317
     82 H         6.144656   -0.007795   5.006895 H        1 UNL1     0.0428
     83 H         4.593728   0.399651   5.70712 H        1 UNL1     0.0428
     84 H         5.745222   2.572866   2.235184 H        1 UNL1     0.0428
     85 H         6.877185   1.404661   2.820915 H        1 UNL1     0.0428
     86 H         5.440857   0.722397   0.898331 H        1 UNL1     0.0317
     87 H         3.995768   0.925559   1.777418 H        1 UNL1     0.0317
     88 H         6.389473   3.261731   4.448897 H        1 UNL1     0.0429
     89 H         4.761424   3.424174   5.111697 H        1 UNL1     0.0429
     90 H         5.265581   1.86115   6.908767 H        1 UNL1     0.0308
     91 H         7.654976   0.757419   6.936337 H        1 UNL1     0.0233
     92 H         6.425319   0.049033   5.858549 H        1 UNL1     0.0233
     93 H         7.690584   1.066881   5.204567 H        1 UNL1     0.0233
     94 H         7.911666   3.12248   6.985766 H        1 UNL1     0.0233
     95 H         6.586381   4.236825   6.616732 H        1 UNL1     0.0233
     96 H         6.539715   3.262586   8.104237 H        1 UNL1     0.0233
     97 H         4.74227   -8.960191   0.29379 H        1 UNL1     0.0280
     98 H         5.927344   -9.283458   1.530028 H        1 UNL1     0.0280
     99 H         4.232252   -8.947599   1.992187 H        1 UNL1     0.0280
     100 H         7.978607   -7.683379   2.153627 H        1 UNL1     0.2922
     101 H         4.483104   -1.154518   -3.728813 H        1 UNL1     0.0236
     102 H         4.764578   0.623247   -3.566375 H        1 UNL1     0.0236
     103 H         3.174727   -0.019   -3.840949 H        1 UNL1     0.0236
     104 H         2.56799   1.602163   -2.947833 H        1 UNL1     0.2098
     105 H         -0.284886   1.645641   -0.470631 H        1 UNL1     0.0234
     106 H         -1.4647   0.338659   -0.772182 H        1 UNL1     0.0234
     107 H         0.0   0.0   0.0 H        1 UNL1     0.0234
     108 H         1.020639   -1.827505   -3.46819 H        1 UNL1     0.2098
     109 H         -1.195353   -1.277698   1.453082 H        1 UNL1     0.0234
     110 H         -0.278942   -2.807521   1.272429 H        1 UNL1     0.0234
     111 H         0.005476   -1.485433   0.195381 H        1 UNL1     0.0234
     112 H         -6.354117   -1.099762   -1.112891 H        1 UNL1     0.0342
     113 H         -5.471145   -1.486181   0.40674 H        1 UNL1     0.0342
     114 H         -6.448986   -0.020527   0.289887 H        1 UNL1     0.0342
     115 H         -3.43783   -1.696887   -4.470054 H        1 UNL1     0.0234
     116 H         -2.236943   -2.948582   -4.135515 H        1 UNL1     0.0234
     117 H         -3.746214   -2.799102   -3.211716 H        1 UNL1     0.0234
     118 H         2.097748   -5.718   2.254286 H        1 UNL1     0.0309
     119 H         0.771806   -4.929611   1.344131 H        1 UNL1     0.0309
     120 H         1.003793   -6.663793   1.31325 H        1 UNL1     0.0309
     121 H         -2.957691   -4.934516   -3.65708 H        1 UNL1     0.0524
     122 H         -3.121504   -5.621666   -2.036017 H        1 UNL1     0.0524
     123 H         -3.817855   -4.020288   -2.388762 H        1 UNL1     0.0524
@<TRIPOS>BOND
     1     1     2    1
     2     1    42    1
     3     2     3    2
     4     3     4    1
     5     4     5    2
     6     5     7    1
     7     6    75    1
     8     6    76    1
     9     6    77    1
    10     7     9   am
    11     9    10    1
    12    10    11    2
    13    10    43    1
    14    11    14    1
    15    11    15    1
    16    12    13   ar
    17    12    27   ar
    18    12    43    1
    19    13    14    1
    20    13    30   ar
    21    14    17    2
    22    15    16    1
    23    16    17    1
    24    16    18    1
    25    16    22    1
    26    18    19    1
    27    19    20    1
    28    20    21    1
    29    21    22    1
    30    23    24    1
    31    23    88    1
    32    23    89    1
    33    24    25    1
    34    24    26    1
    35    24    90    1
    36    25    91    1
    37    25    92    1
    38    25    93    1
    39    26    94    1
    40    26    95    1
    41    26    96    1
    42    27    28   ar
    43    28    29   ar
    44    29    30   ar
    45    29    31    1
    46    30    33    1
    47    31    32    1
    48    32    33    1
    49    32    35    1
    50    34    97    1
    51    34    98    1
    52    34    99    1
    53    35    61    1
    54    36    37    1
    55    36    60    1
    56    37    38    1
    57    38    39    1
    58    39    40    1
    59    40    41    1
    60    41    42    1
    61    45   100    1
    62    47   101    1
    63    47   102    1
    64    47   103    1
    65    48   104    1
    66    49   105    1
    67    49   106    1
    68    49   107    1
    69    50   108    1
    70    51    59    1
    71    52   109    1
    72    52   110    1
    73    52   111    1
    74    53    54    1
    75    54    55    2
    76    54    56    1
    77    56   112    1
    78    56   113    1
    79    56   114    1
    80    57   115    1
    81    57   116    1
    82    57   117    1
    83    58   118    1
    84    58   119    1
    85    58   120    1
    86    59   121    1
    87    59   122    1
    88    59   123    1
    89    60    61    2
    90     1    47    1
    91     1    62    1
    92     2    63    1
    93     3    64    1
    94     4    65    1
    95     5     6    1
    96     7     8    2
    97     9    78    1
    98    15    79    1
    99    18    80    1
   100    18    81    1
   101    19    82    1
   102    19    83    1
   103    20    23    1
   104    21    84    1
   105    21    85    1
   106    22    86    1
   107    22    87    1
   108    27    45    1
   109    28    34    1
   110    32    58    1
   111    33    46    2
   112    36    51    1
   113    36    66    1
   114    37    52    1
   115    37    67    1
   116    38    53    1
   117    38    68    1
   118    42    48    1
   119    42    72    1
   120    43    44    2
   121    60    73    1
   122    61    74    1
   123    39    69    1
   124    39    57    1
   125    40    70    1
   126    40    50    1
   127    41    71    1
   128    41    49    1
