@<TRIPOS>MOLECULE
*****
 123 128 0 0 0
SMALL
GASTEIGER

@<TRIPOS>ATOM
     1 C         5.165297   1.751596   0.50089 C.3        1 UNL1     0.0009
     2 C         6.602867   2.559178   -0.346601 C.2        1 UNL1     -0.0787
     3 C         7.885882   2.46224   -1.01032 C.2        1 UNL1     -0.0649
     4 C         8.763798   3.698429   -1.763618 C.2        1 UNL1     -0.0542
     5 C         9.785163   3.992355   -2.700366 C.2        1 UNL1     0.0115
     6 C         10.915144   3.368207   -3.564603 C.3        1 UNL1     -0.0348
     7 C         9.880578   5.476095   -3.305677 C.2        1 UNL1     0.2441
     8 O         10.703347   6.297979   -2.926094 O.2        1 UNL1     -0.2702
     9 N         9.132127   5.683426   -4.477422 N.am        1 UNL1     -0.2772
     10 C         7.848669   6.069105   -4.165474 C.2        1 UNL1     0.1049
     11 C         7.003006   5.096972   -3.875591 C.2        1 UNL1     0.0801
     12 C         6.547014   7.673974   -2.755716 C.ar        1 UNL1     0.0753
     13 C         5.787921   6.545283   -2.310247 C.ar        1 UNL1     0.0305
     14 C         5.906695   5.240106   -2.956357 C.2        1 UNL1     0.0924
     15 N         7.126695   3.768181   -4.035412 N.pl3        1 UNL1     -0.3170
     16 C         5.856694   3.168017   -3.723713 C.3        1 UNL1     0.1275
     17 N         5.218125   4.122176   -2.744155 N.2        1 UNL1     -0.2557
     18 C         5.005858   3.227453   -4.988721 C.3        1 UNL1     0.0016
     19 C         5.762983   2.544613   -6.116587 C.3        1 UNL1     0.0026
     20 N         6.033341   1.166406   -5.731256 N.3        1 UNL1     -0.3018
     21 C         6.794788   1.005608   -4.490808 C.3        1 UNL1     0.0026
     22 C         6.013807   1.694867   -3.370591 C.3        1 UNL1     0.0016
     23 C         6.480144   0.347917   -6.840799 C.3        1 UNL1     0.0012
     24 C         5.326443   0.098426   -7.824915 C.3        1 UNL1     -0.0339
     25 C         5.353271   1.102435   -8.989089 C.3        1 UNL1     -0.0615
     26 C         5.367518   -1.335908   -8.322689 C.3        1 UNL1     -0.0615
     27 C         6.340706   8.941165   -2.215546 C.ar        1 UNL1     0.1347
     28 C         5.379931   9.209457   -1.256911 C.ar        1 UNL1     0.0342
     29 C         4.678318   8.074257   -0.798407 C.ar        1 UNL1     0.1435
     30 C         4.899361   6.792718   -1.304388 C.ar        1 UNL1     0.0774
     31 O         3.635878   8.186593   0.053477 O.3        1 UNL1     -0.4436
     32 C         2.915184   6.953433   -0.090709 C.3        1 UNL1     0.3143
     33 C         3.929946   5.961317   -0.621912 C.2        1 UNL1     0.2504
     34 C         4.931547   10.57498   -0.816006 C.3        1 UNL1     -0.0327
     35 O         2.552689   6.515597   1.224642 O.2        1 UNL1     -0.4528
     36 C         -0.688533   4.581712   0.821331 C.3        1 UNL1     0.0854
     37 C         -0.991621   3.321566   -0.077386 C.3        1 UNL1     0.0236
     38 C         -1.592677   2.059609   0.708706 C.3        1 UNL1     0.1131
     39 C         -0.868694   1.528214   2.010911 C.3        1 UNL1     0.0200
     40 C         0.792519   1.383652   2.054656 C.3        1 UNL1     0.0661
     41 C         1.754239   0.616217   0.886861 C.3        1 UNL1     0.0091
     42 C         3.462511   0.980204   0.32586 C.3        1 UNL1     0.0661
     43 C         7.498987   7.467627   -3.875281 C.2        1 UNL1     0.2131
     44 O         7.899479   8.366445   -4.592546 O.2        1 UNL1     -0.2851
     45 O         7.153079   9.977083   -2.672012 O.3        1 UNL1     -0.5056
     46 O         3.946458   4.757703   -0.491939 O.2        1 UNL1     -0.2836
     47 C         5.559605   1.321369   1.939433 C.3        1 UNL1     -0.0566
     48 O         3.911802   -0.430684   0.407396 O.3        1 UNL1     -0.3909
     49 C         0.92219   0.383974   -0.354611 C.3        1 UNL1     -0.0577
     50 O         1.391342   2.601609   2.449265 O.3        1 UNL1     -0.3910
     51 O         -0.814744   4.391004   2.212421 O.3        1 UNL1     -0.3753
     52 C         0.054784   3.162522   -1.228338 C.3        1 UNL1     -0.0564
     53 O         -2.193199   1.020878   -0.192813 O.3        1 UNL1     -0.4608
     54 C         -2.415247   -0.289477   0.141243 C.2        1 UNL1     0.3042
     55 O         -1.841754   -1.281809   -0.306218 O.2        1 UNL1     -0.2512
     56 C         -3.44625   -0.468952   1.218989 C.3        1 UNL1     0.0332
     57 C         -1.592155   2.195904   3.271454 C.3        1 UNL1     -0.0567
     58 C         1.841584   7.198615   -1.176434 C.3        1 UNL1     0.0210
     59 C         -1.160759   5.562929   2.949125 C.3        1 UNL1     0.0372
     60 C         0.64045   5.21176   0.593281 C.2        1 UNL1     -0.0208
     61 C         1.551722   5.646951   1.46445 C.2        1 UNL1     0.0882
     62 H         4.688639   2.73542   0.588065 H        1 UNL1     0.0365
     63 H         6.335811   3.612744   -0.241005 H        1 UNL1     0.0576
     64 H         8.344477   1.49582   -1.231292 H        1 UNL1     0.0615
     65 H         8.275603   4.613293   -1.416958 H        1 UNL1     0.0622
     66 H         -1.433137   5.328   0.510422 H        1 UNL1     0.0645
     67 H         -1.856375   3.630824   -0.689857 H        1 UNL1     0.0362
     68 H         -2.540575   2.495672   1.059221 H        1 UNL1     0.0741
     69 H         -1.199916   0.516783   2.205092 H        1 UNL1     0.0359
     70 H         0.903281   0.722789   2.935595 H        1 UNL1     0.0600
     71 H         1.797756   -0.405213   1.313177 H        1 UNL1     0.0348
     72 H         3.354763   1.467678   1.305694 H        1 UNL1     0.0602
     73 H         0.759886   5.409786   -0.442947 H        1 UNL1     0.0628
     74 H         1.53259   5.435549   2.534114 H        1 UNL1     0.1022
     75 H         10.960049   2.262851   -3.412265 H        1 UNL1     0.0279
     76 H         10.803189   3.45166   -4.643293 H        1 UNL1     0.0279
     77 H         11.919509   3.673297   -3.236167 H        1 UNL1     0.0279
     78 H         9.071494   4.813797   -5.002917 H        1 UNL1     0.1553
     79 H         7.793212   3.341011   -4.652027 H        1 UNL1     0.1484
     80 H         4.044564   2.735807   -4.796459 H        1 UNL1     0.0317
     81 H         4.779055   4.264253   -5.259385 H        1 UNL1     0.0317
     82 H         6.693719   3.076645   -6.362723 H        1 UNL1     0.0428
     83 H         5.139225   2.599983   -7.009286 H        1 UNL1     0.0428
     84 H         6.915245   -0.03748   -4.182152 H        1 UNL1     0.0428
     85 H         7.824822   1.374334   -4.592728 H        1 UNL1     0.0428
     86 H         6.528928   1.444202   -2.461853 H        1 UNL1     0.0317
     87 H         5.034453   1.216554   -3.247393 H        1 UNL1     0.0317
     88 H         7.276722   0.890552   -7.366448 H        1 UNL1     0.0429
     89 H         6.91275   -0.597831   -6.48982 H        1 UNL1     0.0429
     90 H         4.372667   0.204198   -7.294503 H        1 UNL1     0.0308
     91 H         6.303085   1.058469   -9.530406 H        1 UNL1     0.0233
     92 H         4.534223   0.908308   -9.685569 H        1 UNL1     0.0233
     93 H         5.22775   2.138004   -8.65045 H        1 UNL1     0.0233
     94 H         4.672655   -1.465343   -9.159498 H        1 UNL1     0.0233
     95 H         6.372608   -1.579335   -8.678358 H        1 UNL1     0.0233
     96 H         5.092309   -2.040446   -7.532844 H        1 UNL1     0.0233
     97 H         4.137056   10.524222   -0.077469 H        1 UNL1     0.0280
     98 H         5.743201   11.145199   -0.345556 H        1 UNL1     0.0280
     99 H         4.558918   11.139873   -1.686144 H        1 UNL1     0.0280
     100 H         6.686106   10.727367   -2.995483 H        1 UNL1     0.2922
     101 H         4.696248   0.886866   2.4429 H        1 UNL1     0.0236
     102 H         6.00897   2.126597   2.519658 H        1 UNL1     0.0236
     103 H         6.316343   0.519159   1.939004 H        1 UNL1     0.0236
     104 H         4.330015   -0.557005   1.281531 H        1 UNL1     0.2098
     105 H         0.709914   1.283061   -0.927667 H        1 UNL1     0.0234
     106 H         1.293106   -0.403383   -1.010673 H        1 UNL1     0.0234
     107 H         0.0   -0.0   0.0 H        1 UNL1     0.0234
     108 H         1.193502   3.260205   1.755811 H        1 UNL1     0.2098
     109 H         1.079079   3.049414   -0.846581 H        1 UNL1     0.0234
     110 H         -0.176068   2.335737   -1.908689 H        1 UNL1     0.0234
     111 H         0.076482   4.045786   -1.880505 H        1 UNL1     0.0234
     112 H         -3.571309   -1.533129   1.440876 H        1 UNL1     0.0342
     113 H         -3.199305   0.091511   2.119401 H        1 UNL1     0.0342
     114 H         -4.405785   -0.088365   0.842679 H        1 UNL1     0.0342
     115 H         -2.656235   1.926796   3.321488 H        1 UNL1     0.0234
     116 H         -1.141988   1.934992   4.23131 H        1 UNL1     0.0234
     117 H         -1.653197   3.296202   3.21179 H        1 UNL1     0.0234
     118 H         0.939556   7.684696   -0.765245 H        1 UNL1     0.0309
     119 H         2.211947   7.787389   -2.021644 H        1 UNL1     0.0309
     120 H         1.454261   6.266704   -1.602614 H        1 UNL1     0.0309
     121 H         -0.356752   6.286066   2.81495 H        1 UNL1     0.0524
     122 H         -2.090617   6.028456   2.582131 H        1 UNL1     0.0524
     123 H         -1.277982   5.323859   4.00231 H        1 UNL1     0.0524
@<TRIPOS>BOND
     1     1     2    1
     2     1    42    1
     3     2     3    2
     4     3     4    1
     5     4     5    2
     6     5     7    1
     7     6    75    1
     8     6    76    1
     9     6    77    1
    10     7     9   am
    11     9    10    1
    12    10    11    2
    13    10    43    1
    14    11    14    1
    15    11    15    1
    16    12    13   ar
    17    12    27   ar
    18    12    43    1
    19    13    14    1
    20    13    30   ar
    21    14    17    2
    22    15    16    1
    23    16    17    1
    24    16    18    1
    25    16    22    1
    26    18    19    1
    27    19    20    1
    28    20    21    1
    29    21    22    1
    30    23    24    1
    31    23    88    1
    32    23    89    1
    33    24    25    1
    34    24    26    1
    35    24    90    1
    36    25    91    1
    37    25    92    1
    38    25    93    1
    39    26    94    1
    40    26    95    1
    41    26    96    1
    42    27    28   ar
    43    28    29   ar
    44    29    30   ar
    45    29    31    1
    46    30    33    1
    47    31    32    1
    48    32    33    1
    49    32    35    1
    50    34    97    1
    51    34    98    1
    52    34    99    1
    53    35    61    1
    54    36    37    1
    55    36    60    1
    56    37    38    1
    57    38    39    1
    58    39    40    1
    59    40    41    1
    60    41    42    1
    61    45   100    1
    62    47   101    1
    63    47   102    1
    64    47   103    1
    65    48   104    1
    66    49   105    1
    67    49   106    1
    68    49   107    1
    69    50   108    1
    70    51    59    1
    71    52   109    1
    72    52   110    1
    73    52   111    1
    74    53    54    1
    75    54    55    2
    76    54    56    1
    77    56   112    1
    78    56   113    1
    79    56   114    1
    80    57   115    1
    81    57   116    1
    82    57   117    1
    83    58   118    1
    84    58   119    1
    85    58   120    1
    86    59   121    1
    87    59   122    1
    88    59   123    1
    89    60    61    2
    90     1    47    1
    91     1    62    1
    92     2    63    1
    93     3    64    1
    94     4    65    1
    95     5     6    1
    96     7     8    2
    97     9    78    1
    98    15    79    1
    99    18    80    1
   100    18    81    1
   101    19    82    1
   102    19    83    1
   103    20    23    1
   104    21    84    1
   105    21    85    1
   106    22    86    1
   107    22    87    1
   108    27    45    1
   109    28    34    1
   110    32    58    1
   111    33    46    2
   112    36    51    1
   113    36    66    1
   114    37    52    1
   115    37    67    1
   116    38    53    1
   117    38    68    1
   118    42    48    1
   119    42    72    1
   120    43    44    2
   121    60    73    1
   122    61    74    1
   123    39    69    1
   124    39    57    1
   125    40    70    1
   126    40    50    1
   127    41    71    1
   128    41    49    1
