@<TRIPOS>MOLECULE
*****
 123 128 0 0 0
SMALL
GASTEIGER

@<TRIPOS>ATOM
     1 C         -2.968114   3.745446   2.190339 C.3        1 UNL1     0.0009
     2 C         -4.736771   4.295014   2.273175 C.2        1 UNL1     -0.0787
     3 C         -5.763429   5.272502   1.979002 C.2        1 UNL1     -0.0649
     4 C         -7.430838   5.14145   2.241547 C.2        1 UNL1     -0.0542
     5 C         -8.706119   5.640202   1.878252 C.2        1 UNL1     0.0115
     6 C         -9.439756   6.767684   1.101153 C.3        1 UNL1     -0.0348
     7 C         -10.007945   4.763242   2.214675 C.2        1 UNL1     0.2441
     8 O         -10.749998   5.007836   3.155981 O.2        1 UNL1     -0.2702
     9 N         -10.384334   3.857519   1.207626 N.am        1 UNL1     -0.2772
     10 C         -9.733058   2.656865   1.373735 C.2        1 UNL1     0.1049
     11 C         -8.507296   2.587394   0.887008 C.2        1 UNL1     0.0801
     12 C         -9.194287   0.912467   3.083745 C.ar        1 UNL1     0.0753
     13 C         -7.832665   1.027521   2.657885 C.ar        1 UNL1     0.0305
     14 C         -7.467381   1.773432   1.455706 C.2        1 UNL1     0.0924
     15 N         -7.854801   3.428371   0.066315 N.pl3        1 UNL1     -0.3170
     16 C         -6.609072   2.807801   -0.298796 C.3        1 UNL1     0.1275
     17 N         -6.283505   1.901564   0.863298 N.2        1 UNL1     -0.2557
     18 C         -6.891339   1.890653   -1.48491 C.3        1 UNL1     0.0016
     19 C         -7.532211   2.711487   -2.592657 C.3        1 UNL1     0.0026
     20 N         -6.621826   3.785308   -2.965666 N.3        1 UNL1     -0.3018
     21 C         -6.242119   4.68551   -1.874873 C.3        1 UNL1     0.0026
     22 C         -5.596302   3.840649   -0.775317 C.3        1 UNL1     0.0016
     23 C         -6.997795   4.438937   -4.20343 C.3        1 UNL1     0.0012
     24 C         -8.473126   4.161618   -4.532437 C.3        1 UNL1     -0.0339
     25 C         -8.956619   2.852273   -3.887529 C.3        1 UNL1     -0.0615
     26 C         -9.331283   5.342074   -4.111875 C.3        1 UNL1     -0.0615
     27 C         -9.547968   0.101527   4.159572 C.ar        1 UNL1     0.1347
     28 C         -8.637146   -0.669919   4.85909 C.ar        1 UNL1     0.0342
     29 C         -7.295965   -0.503008   4.453456 C.ar        1 UNL1     0.1435
     30 C         -6.922305   0.333466   3.400883 C.ar        1 UNL1     0.0774
     31 O         -6.305203   -1.266783   4.963402 O.3        1 UNL1     -0.4436
     32 C         -5.235098   -1.154616   4.013051 C.3        1 UNL1     0.3143
     33 C         -5.491596   0.146196   3.279354 C.2        1 UNL1     0.2504
     34 C         -8.973187   -1.747291   5.85229 C.3        1 UNL1     -0.0327
     35 O         -4.021953   -0.982386   4.75593 O.2        1 UNL1     -0.4528
     36 C         -1.276258   -2.524933   2.637016 C.3        1 UNL1     0.0854
     37 C         -0.848194   -2.183055   1.158029 C.3        1 UNL1     0.0236
     38 C         0.700359   -1.810222   0.971683 C.3        1 UNL1     0.1131
     39 C         1.362099   -0.716146   1.903008 C.3        1 UNL1     0.0200
     40 C         0.556103   0.704394   2.241939 C.3        1 UNL1     0.0661
     41 C         -0.168923   1.731534   1.10311 C.3        1 UNL1     0.0091
     42 C         -1.654138   2.799685   1.239463 C.3        1 UNL1     0.0661
     43 C         -10.229243   1.615447   2.285657 C.2        1 UNL1     0.2131
     44 O         -11.406077   1.302719   2.284799 O.2        1 UNL1     -0.2851
     45 O         -10.888642   0.08096   4.538527 O.3        1 UNL1     -0.5056
     46 O         -4.692066   0.875246   2.736132 O.2        1 UNL1     -0.2836
     47 C         -2.10852   4.538861   3.210914 C.3        1 UNL1     -0.0566
     48 O         -0.994905   3.987236   0.644273 O.3        1 UNL1     -0.3909
     49 C         -0.270125   1.001632   -0.217683 C.3        1 UNL1     -0.0577
     50 O         -0.295416   0.543335   3.358496 O.3        1 UNL1     -0.3910
     51 O         -0.301845   -2.294173   3.629336 O.3        1 UNL1     -0.3753
     52 C         -1.982064   -1.436787   0.381902 C.3        1 UNL1     -0.0564
     53 O         1.156176   -1.834809   -0.457986 O.3        1 UNL1     -0.4608
     54 C         2.344847   -1.335369   -0.922259 C.2        1 UNL1     0.3042
     55 O         3.335318   -1.973263   -1.27708 O.2        1 UNL1     -0.2512
     56 C         2.362319   0.161997   -1.041852 C.3        1 UNL1     0.0332
     57 C         2.068768   -1.480135   3.117552 C.3        1 UNL1     -0.0567
     58 C         -5.40598   -2.328827   3.021306 C.3        1 UNL1     0.0210
     59 C         0.924404   -2.998849   3.440624 C.3        1 UNL1     0.0372
     60 C         -2.525477   -1.861068   3.099505 C.2        1 UNL1     -0.0208
     61 C         -2.801838   -1.24395   4.249085 C.2        1 UNL1     0.0882
     62 H         -3.255821   2.80951   2.684261 H        1 UNL1     0.0365
     63 H         -5.172594   3.489557   2.867958 H        1 UNL1     0.0576
     64 H         -5.55216   6.162605   1.382186 H        1 UNL1     0.0615
     65 H         -7.523038   4.277453   2.905242 H        1 UNL1     0.0622
     66 H         -1.4962   -3.60166   2.61881 H        1 UNL1     0.0645
     67 H         -0.905626   -3.15164   0.631623 H        1 UNL1     0.0362
     68 H         1.15707   -2.765156   1.273409 H        1 UNL1     0.0741
     69 H         2.273027   -0.366274   1.43588 H        1 UNL1     0.0359
     70 H         1.3975   1.315125   2.62157 H        1 UNL1     0.0600
     71 H         0.672303   2.424214   0.904386 H        1 UNL1     0.0348
     72 H         -1.337092   2.588027   2.270966 H        1 UNL1     0.0602
     73 H         -3.299564   -2.04493   2.396488 H        1 UNL1     0.0628
     74 H         -2.056133   -0.966723   4.994945 H        1 UNL1     0.1022
     75 H         -10.536116   6.739382   1.311457 H        1 UNL1     0.0279
     76 H         -9.176807   7.789455   1.365559 H        1 UNL1     0.0279
     77 H         -9.423827   6.613497   0.012266 H        1 UNL1     0.0279
     78 H         -10.11744   4.227465   0.297689 H        1 UNL1     0.1553
     79 H         -8.312029   4.110471   -0.510412 H        1 UNL1     0.1484
     80 H         -5.950338   1.435551   -1.816822 H        1 UNL1     0.0317
     81 H         -7.552363   1.06715   -1.194151 H        1 UNL1     0.0317
     82 H         -8.511491   3.110214   -2.289443 H        1 UNL1     0.0428
     83 H         -7.726692   2.037831   -3.42777 H        1 UNL1     0.0428
     84 H         -5.496894   5.433551   -2.162771 H        1 UNL1     0.0428
     85 H         -7.094901   5.281037   -1.520715 H        1 UNL1     0.0428
     86 H         -5.213366   4.542667   -0.058017 H        1 UNL1     0.0317
     87 H         -4.69258   3.352381   -1.159993 H        1 UNL1     0.0317
     88 H         -6.86647   5.520944   -4.071859 H        1 UNL1     0.0429
     89 H         -6.343564   4.133749   -5.030241 H        1 UNL1     0.0429
     90 H         -8.589324   4.079096   -5.61959 H        1 UNL1     0.0308
     91 H         -9.860589   3.012227   -3.292252 H        1 UNL1     0.0233
     92 H         -9.158832   2.097321   -4.65092 H        1 UNL1     0.0233
     93 H         -8.207017   2.415542   -3.216561 H        1 UNL1     0.0233
     94 H         -8.709166   6.114869   -3.647554 H        1 UNL1     0.0233
     95 H         -9.817196   5.781523   -4.987509 H        1 UNL1     0.0233
     96 H         -10.100538   5.040959   -3.395254 H        1 UNL1     0.0233
     97 H         -8.85967   -2.741052   5.429462 H        1 UNL1     0.0280
     98 H         -8.317172   -1.718298   6.732097 H        1 UNL1     0.0280
     99 H         -10.017758   -1.630303   6.184377 H        1 UNL1     0.0280
     100 H         -11.393959   0.812487   4.230071 H        1 UNL1     0.2922
     101 H         -2.625261   4.585321   4.169286 H        1 UNL1     0.0236
     102 H         -1.821241   5.526909   2.852842 H        1 UNL1     0.0236
     103 H         -1.154497   4.031611   3.431663 H        1 UNL1     0.0236
     104 H         -0.193856   3.677286   0.178202 H        1 UNL1     0.2098
     105 H         -1.267712   0.990843   -0.649557 H        1 UNL1     0.0234
     106 H         0.461674   1.308549   -0.96481 H        1 UNL1     0.0234
     107 H         0.0   0.0   0.0 H        1 UNL1     0.0234
     108 H         0.240806   0.160652   4.079459 H        1 UNL1     0.2098
     109 H         -1.73333   -1.290044   -0.678433 H        1 UNL1     0.0234
     110 H         -2.956723   -1.929643   0.46482 H        1 UNL1     0.0234
     111 H         -2.156653   -0.431576   0.788122 H        1 UNL1     0.0234
     112 H         3.311366   0.489535   -1.477024 H        1 UNL1     0.0342
     113 H         1.518056   0.536652   -1.618652 H        1 UNL1     0.0342
     114 H         2.290351   0.587742   -0.031542 H        1 UNL1     0.0342
     115 H         3.163736   -1.464372   3.028195 H        1 UNL1     0.0234
     116 H         1.813831   -1.081276   4.101405 H        1 UNL1     0.0234
     117 H         1.871481   -2.565904   3.128676 H        1 UNL1     0.0234
     118 H         -5.628518   -1.978383   1.998237 H        1 UNL1     0.0309
     119 H         -4.538079   -2.995174   2.990778 H        1 UNL1     0.0309
     120 H         -6.266204   -2.962242   3.264013 H        1 UNL1     0.0309
     121 H         1.624425   -2.651648   4.200083 H        1 UNL1     0.0524
     122 H         0.805784   -4.087376   3.571299 H        1 UNL1     0.0524
     123 H         1.320971   -2.804015   2.448219 H        1 UNL1     0.0524
@<TRIPOS>BOND
     1     1     2    1
     2     1    42    1
     3     2     3    2
     4     3     4    1
     5     4     5    2
     6     5     7    1
     7     6    75    1
     8     6    76    1
     9     6    77    1
    10     7     9   am
    11     9    10    1
    12    10    11    2
    13    10    43    1
    14    11    14    1
    15    11    15    1
    16    12    13   ar
    17    12    27   ar
    18    12    43    1
    19    13    14    1
    20    13    30   ar
    21    14    17    2
    22    15    16    1
    23    16    17    1
    24    16    18    1
    25    16    22    1
    26    18    19    1
    27    19    20    1
    28    20    21    1
    29    21    22    1
    30    23    24    1
    31    23    88    1
    32    23    89    1
    33    24    25    1
    34    24    26    1
    35    24    90    1
    36    25    91    1
    37    25    92    1
    38    25    93    1
    39    26    94    1
    40    26    95    1
    41    26    96    1
    42    27    28   ar
    43    28    29   ar
    44    29    30   ar
    45    29    31    1
    46    30    33    1
    47    31    32    1
    48    32    33    1
    49    32    35    1
    50    34    97    1
    51    34    98    1
    52    34    99    1
    53    35    61    1
    54    36    37    1
    55    36    60    1
    56    37    38    1
    57    38    39    1
    58    39    40    1
    59    40    41    1
    60    41    42    1
    61    45   100    1
    62    47   101    1
    63    47   102    1
    64    47   103    1
    65    48   104    1
    66    49   105    1
    67    49   106    1
    68    49   107    1
    69    50   108    1
    70    51    59    1
    71    52   109    1
    72    52   110    1
    73    52   111    1
    74    53    54    1
    75    54    55    2
    76    54    56    1
    77    56   112    1
    78    56   113    1
    79    56   114    1
    80    57   115    1
    81    57   116    1
    82    57   117    1
    83    58   118    1
    84    58   119    1
    85    58   120    1
    86    59   121    1
    87    59   122    1
    88    59   123    1
    89    60    61    2
    90     1    47    1
    91     1    62    1
    92     2    63    1
    93     3    64    1
    94     4    65    1
    95     5     6    1
    96     7     8    2
    97     9    78    1
    98    15    79    1
    99    18    80    1
   100    18    81    1
   101    19    82    1
   102    19    83    1
   103    20    23    1
   104    21    84    1
   105    21    85    1
   106    22    86    1
   107    22    87    1
   108    27    45    1
   109    28    34    1
   110    32    58    1
   111    33    46    2
   112    36    51    1
   113    36    66    1
   114    37    52    1
   115    37    67    1
   116    38    53    1
   117    38    68    1
   118    42    48    1
   119    42    72    1
   120    43    44    2
   121    60    73    1
   122    61    74    1
   123    39    69    1
   124    39    57    1
   125    40    70    1
   126    40    50    1
   127    41    71    1
   128    41    49    1
