@<TRIPOS>MOLECULE
*****
 123 128 0 0 0
SMALL
GASTEIGER

@<TRIPOS>ATOM
     1 C         5.185186   1.666341   0.580019 C.3        1 UNL1     0.0009
     2 C         6.650766   2.444096   -0.247151 C.2        1 UNL1     -0.0787
     3 C         7.943163   2.321241   -0.887981 C.2        1 UNL1     -0.0649
     4 C         8.854982   3.537649   -1.633163 C.2        1 UNL1     -0.0542
     5 C         9.897208   3.808379   -2.553786 C.2        1 UNL1     0.0115
     6 C         11.031027   3.159779   -3.394676 C.3        1 UNL1     -0.0348
     7 C         10.028454   5.286541   -3.165996 C.2        1 UNL1     0.2441
     8 O         10.85854   6.096593   -2.777025 O.2        1 UNL1     -0.2702
     9 N         9.303946   5.499415   -4.351713 N.am        1 UNL1     -0.2772
     10 C         8.022112   5.908817   -4.064287 C.2        1 UNL1     0.1049
     11 C         7.155039   4.953033   -3.783424 C.2        1 UNL1     0.0801
     12 C         6.724096   7.544246   -2.686658 C.ar        1 UNL1     0.0753
     13 C         5.938207   6.431406   -2.247824 C.ar        1 UNL1     0.0305
     14 C         6.045685   5.120461   -2.884159 C.2        1 UNL1     0.0924
     15 N         7.258657   3.621372   -3.933328 N.pl3        1 UNL1     -0.3170
     16 C         5.973376   3.044862   -3.640169 C.3        1 UNL1     0.1275
     17 N         5.334498   4.01575   -2.677394 N.2        1 UNL1     -0.2557
     18 C         5.145582   3.11104   -4.920043 C.3        1 UNL1     0.0016
     19 C         5.910186   2.408497   -6.03063 C.3        1 UNL1     0.0026
     20 N         6.1502   1.028269   -5.632646 N.3        1 UNL1     -0.3018
     21 C         6.887316   0.86212   -4.378284 C.3        1 UNL1     0.0026
     22 C         6.099105   1.57144   -3.275795 C.3        1 UNL1     0.0016
     23 C         6.601933   0.195502   -6.729495 C.3        1 UNL1     0.0012
     24 C         5.460019   -0.043922   -7.729727 C.3        1 UNL1     -0.0339
     25 C         5.519717   0.951359   -8.900159 C.3        1 UNL1     -0.0615
     26 C         5.487532   -1.482176   -8.217014 C.3        1 UNL1     -0.0615
     27 C         6.530281   8.818054   -2.15754 C.ar        1 UNL1     0.1347
     28 C         5.557891   9.10855   -1.217264 C.ar        1 UNL1     0.0342
     29 C         4.829128   7.988305   -0.764363 C.ar        1 UNL1     0.1435
     30 C         5.03684   6.700108   -1.25896 C.ar        1 UNL1     0.0774
     31 O         3.774261   8.123608   0.068676 O.3        1 UNL1     -0.4436
     32 C         3.035116   6.902051   -0.080773 C.3        1 UNL1     0.3143
     33 C         4.041709   5.889548   -0.588533 C.2        1 UNL1     0.2504
     34 C         5.125466   10.484194   -0.792159 C.3        1 UNL1     -0.0327
     35 O         2.642582   6.478523   1.230636 O.2        1 UNL1     -0.4528
     36 C         -0.623902   4.597727   0.782555 C.3        1 UNL1     0.0854
     37 C         -0.933041   3.337448   -0.113911 C.3        1 UNL1     0.0236
     38 C         -1.569088   2.090759   0.669003 C.3        1 UNL1     0.1131
     39 C         -0.876842   1.55509   1.986624 C.3        1 UNL1     0.0200
     40 C         0.780648   1.382506   2.059966 C.3        1 UNL1     0.0661
     41 C         1.749024   0.59165   0.91349 C.3        1 UNL1     0.0091
     42 C         3.472688   0.923025   0.380036 C.3        1 UNL1     0.0661
     43 C         7.691519   7.314847   -3.788352 C.2        1 UNL1     0.2131
     44 O         8.119649   8.202298   -4.503805 O.2        1 UNL1     -0.2851
     45 O         7.368033   9.83716   -2.605906 O.3        1 UNL1     -0.5056
     46 O         4.035341   4.686645   -0.451277 O.2        1 UNL1     -0.2836
     47 C         5.547242   1.238277   2.027657 C.3        1 UNL1     -0.0566
     48 O         3.896251   -0.49479   0.477565 O.3        1 UNL1     -0.3909
     49 C         0.934605   0.36602   -0.340825 C.3        1 UNL1     -0.0577
     50 O         1.393388   2.592474   2.457773 O.3        1 UNL1     -0.3910
     51 O         -0.777288   4.417725   2.17234 O.3        1 UNL1     -0.3753
     52 C         0.130137   3.153544   -1.245627 C.3        1 UNL1     -0.0564
     53 O         -2.171728   1.05691   -0.236705 O.3        1 UNL1     -0.4608
     54 C         -2.421929   -0.247399   0.101092 C.2        1 UNL1     0.3042
     55 O         -1.85792   -1.252085   -0.330578 O.2        1 UNL1     -0.2512
     56 C         -3.474253   -0.40267   1.161855 C.3        1 UNL1     0.0332
     57 C         -1.610336   2.242724   3.230537 C.3        1 UNL1     -0.0567
     58 C         1.984723   7.158838   -1.186334 C.3        1 UNL1     0.0210
     59 C         -1.115785   5.599869   2.896096 C.3        1 UNL1     0.0372
     60 C         0.719416   5.203624   0.573878 C.2        1 UNL1     -0.0208
     61 C         1.622889   5.62855   1.45814 C.2        1 UNL1     0.0882
     62 H         4.724039   2.658662   0.65319 H        1 UNL1     0.0365
     63 H         6.400037   3.502688   -0.15234 H        1 UNL1     0.0576
     64 H         8.388855   1.345808   -1.095341 H        1 UNL1     0.0615
     65 H         8.376652   4.462807   -1.300348 H        1 UNL1     0.0622
     66 H         -1.350139   5.354679   0.454454 H        1 UNL1     0.0645
     67 H         -1.781696   3.657642   -0.743054 H        1 UNL1     0.0362
     68 H         -2.515261   2.545053   1.000506 H        1 UNL1     0.0741
     69 H         -1.228652   0.550659   2.180937 H        1 UNL1     0.0359
     70 H         0.864885   0.725261   2.946528 H        1 UNL1     0.0600
     71 H         1.767677   -0.427741   1.346445 H        1 UNL1     0.0348
     72 H         3.356467   1.418259   1.354999 H        1 UNL1     0.0602
     73 H         0.860048   5.393233   -0.461264 H        1 UNL1     0.0628
     74 H         1.581728   5.424062   2.528527 H        1 UNL1     0.1022
     75 H         11.054344   2.054773   -3.23514 H        1 UNL1     0.0279
     76 H         10.939101   3.238518   -4.47561 H        1 UNL1     0.0279
     77 H         12.034675   3.449713   -3.050684 H        1 UNL1     0.0279
     78 H         9.237463   4.627742   -4.873099 H        1 UNL1     0.1553
     79 H         7.928266   3.179135   -4.53581 H        1 UNL1     0.1484
     80 H         4.172833   2.637036   -4.741589 H        1 UNL1     0.0317
     81 H         4.941283   4.149877   -5.200634 H        1 UNL1     0.0317
     82 H         6.854007   2.923071   -6.263714 H        1 UNL1     0.0428
     83 H         5.302926   2.46902   -6.934302 H        1 UNL1     0.0428
     84 H         6.984539   -0.180959   -4.061511 H        1 UNL1     0.0428
     85 H         7.925123   1.212605   -4.464504 H        1 UNL1     0.0428
     86 H         6.594135   1.317603   -2.356828 H        1 UNL1     0.0317
     87 H         5.109717   1.110652   -3.166783 H        1 UNL1     0.0317
     88 H         7.414496   0.722646   -7.246367 H        1 UNL1     0.0429
     89 H         7.015001   -0.75401   -6.365387 H        1 UNL1     0.0429
     90 H         4.499826   0.079601   -7.214959 H        1 UNL1     0.0308
     91 H         6.477032   0.889616   -9.426313 H        1 UNL1     0.0233
     92 H         4.708751   0.764397   -9.607964 H        1 UNL1     0.0233
     93 H         5.404329   1.991021   -8.57058 H        1 UNL1     0.0233
     94 H         4.803851   -1.607269   -9.063636 H        1 UNL1     0.0233
     95 H         6.494285   -1.742857   -8.555327 H        1 UNL1     0.0233
     96 H         5.189735   -2.177008   -7.426765 H        1 UNL1     0.0233
     97 H         4.317628   10.45151   -0.067204 H        1 UNL1     0.0280
     98 H         5.938561   11.043368   -0.31106 H        1 UNL1     0.0280
     99 H         4.777609   11.050014   -1.671896 H        1 UNL1     0.0280
     100 H         6.919631   10.593297   -2.941784 H        1 UNL1     0.2922
     101 H         4.668025   0.821646   2.518627 H        1 UNL1     0.0236
     102 H         6.000296   2.039269   2.61087 H        1 UNL1     0.0236
     103 H         6.290008   0.423298   2.045008 H        1 UNL1     0.0236
     104 H         4.29713   -0.622863   1.359531 H        1 UNL1     0.2098
     105 H         0.747671   1.265067   -0.922703 H        1 UNL1     0.0234
     106 H         1.303202   -0.431549   -0.985765 H        1 UNL1     0.0234
     107 H         0.0   -0.0   0.0 H        1 UNL1     0.0234
     108 H         1.216427   3.250865   1.758506 H        1 UNL1     0.2098
     109 H         1.14562   3.025336   -0.845541 H        1 UNL1     0.0234
     110 H         -0.103115   2.326661   -1.925039 H        1 UNL1     0.0234
     111 H         0.178198   4.032297   -1.90246 H        1 UNL1     0.0234
     112 H         -3.621342   -1.463181   1.387746 H        1 UNL1     0.0342
     113 H         -3.233268   0.159009   2.063124 H        1 UNL1     0.0342
     114 H         -4.420503   -0.008096   0.766776 H        1 UNL1     0.0342
     115 H         -2.679577   1.992102   3.26371 H        1 UNL1     0.0234
     116 H         -1.181296   1.980063   4.199549 H        1 UNL1     0.0234
     117 H         -1.651467   3.343516   3.16341 H        1 UNL1     0.0234
     118 H         1.08422   7.662733   -0.793665 H        1 UNL1     0.0309
     119 H         2.379619   7.736025   -2.028423 H        1 UNL1     0.0309
     120 H         1.58887   6.231071   -1.613713 H        1 UNL1     0.0309
     121 H         -0.29873   6.309542   2.769052 H        1 UNL1     0.0524
     122 H         -2.032792   6.077214   2.51233 H        1 UNL1     0.0524
     123 H         -1.252165   5.36984   3.948988 H        1 UNL1     0.0524
@<TRIPOS>BOND
     1     1     2    1
     2     1    42    1
     3     2     3    2
     4     3     4    1
     5     4     5    2
     6     5     7    1
     7     6    75    1
     8     6    76    1
     9     6    77    1
    10     7     9   am
    11     9    10    1
    12    10    11    2
    13    10    43    1
    14    11    14    1
    15    11    15    1
    16    12    13   ar
    17    12    27   ar
    18    12    43    1
    19    13    14    1
    20    13    30   ar
    21    14    17    2
    22    15    16    1
    23    16    17    1
    24    16    18    1
    25    16    22    1
    26    18    19    1
    27    19    20    1
    28    20    21    1
    29    21    22    1
    30    23    24    1
    31    23    88    1
    32    23    89    1
    33    24    25    1
    34    24    26    1
    35    24    90    1
    36    25    91    1
    37    25    92    1
    38    25    93    1
    39    26    94    1
    40    26    95    1
    41    26    96    1
    42    27    28   ar
    43    28    29   ar
    44    29    30   ar
    45    29    31    1
    46    30    33    1
    47    31    32    1
    48    32    33    1
    49    32    35    1
    50    34    97    1
    51    34    98    1
    52    34    99    1
    53    35    61    1
    54    36    37    1
    55    36    60    1
    56    37    38    1
    57    38    39    1
    58    39    40    1
    59    40    41    1
    60    41    42    1
    61    45   100    1
    62    47   101    1
    63    47   102    1
    64    47   103    1
    65    48   104    1
    66    49   105    1
    67    49   106    1
    68    49   107    1
    69    50   108    1
    70    51    59    1
    71    52   109    1
    72    52   110    1
    73    52   111    1
    74    53    54    1
    75    54    55    2
    76    54    56    1
    77    56   112    1
    78    56   113    1
    79    56   114    1
    80    57   115    1
    81    57   116    1
    82    57   117    1
    83    58   118    1
    84    58   119    1
    85    58   120    1
    86    59   121    1
    87    59   122    1
    88    59   123    1
    89    60    61    2
    90     1    47    1
    91     1    62    1
    92     2    63    1
    93     3    64    1
    94     4    65    1
    95     5     6    1
    96     7     8    2
    97     9    78    1
    98    15    79    1
    99    18    80    1
   100    18    81    1
   101    19    82    1
   102    19    83    1
   103    20    23    1
   104    21    84    1
   105    21    85    1
   106    22    86    1
   107    22    87    1
   108    27    45    1
   109    28    34    1
   110    32    58    1
   111    33    46    2
   112    36    51    1
   113    36    66    1
   114    37    52    1
   115    37    67    1
   116    38    53    1
   117    38    68    1
   118    42    48    1
   119    42    72    1
   120    43    44    2
   121    60    73    1
   122    61    74    1
   123    39    69    1
   124    39    57    1
   125    40    70    1
   126    40    50    1
   127    41    71    1
   128    41    49    1
