@<TRIPOS>MOLECULE
*****
 123 128 0 0 0
SMALL
GASTEIGER

@<TRIPOS>ATOM
     1 C         5.313621   1.156212   0.471861 C.3        1 UNL1     0.0009
     2 C         6.872807   1.629094   -0.412649 C.2        1 UNL1     -0.0787
     3 C         8.132802   1.25897   -1.02213 C.2        1 UNL1     -0.0649
     4 C         9.206573   2.250741   -1.876391 C.2        1 UNL1     -0.0542
     5 C         10.274256   2.274947   -2.807275 C.2        1 UNL1     0.0115
     6 C         11.30187   1.3892   -3.564101 C.3        1 UNL1     -0.0348
     7 C         10.613056   3.648867   -3.565265 C.2        1 UNL1     0.2441
     8 O         11.551098   4.368451   -3.250937 O.2        1 UNL1     -0.2702
     9 N         9.92307   3.839726   -4.775076 N.am        1 UNL1     -0.2772
     10 C         8.713393   4.454233   -4.546199 C.2        1 UNL1     0.1049
     11 C         7.719785   3.665099   -4.179822 C.2        1 UNL1     0.0801
     12 C         7.665254   6.389902   -3.357955 C.ar        1 UNL1     0.0753
     13 C         6.730057   5.450813   -2.81747 C.ar        1 UNL1     0.0305
     14 C         6.648009   4.079622   -3.31562 C.2        1 UNL1     0.0924
     15 N         7.632273   2.323936   -4.192043 N.pl3        1 UNL1     -0.3170
     16 C         6.278775   1.968843   -3.857071 C.3        1 UNL1     0.1275
     17 N         5.787285   3.114135   -3.005916 N.2        1 UNL1     -0.2557
     18 C         5.465409   2.020279   -5.146836 C.3        1 UNL1     0.0016
     19 C         6.119167   1.106182   -6.170856 C.3        1 UNL1     0.0026
     20 N         6.161215   -0.245985   -5.6315 N.3        1 UNL1     -0.3018
     21 C         6.870519   -0.385592   -4.358014 C.3        1 UNL1     0.0026
     22 C         6.194339   0.537699   -3.343021 C.3        1 UNL1     0.0016
     23 C         6.48678   -1.242473   -6.632331 C.3        1 UNL1     0.0012
     24 C         5.321431   -1.415503   -7.619133 C.3        1 UNL1     -0.0339
     25 C         5.580426   -0.660374   -8.933194 C.3        1 UNL1     -0.0615
     26 C         5.061651   -2.891669   -7.864549 C.3        1 UNL1     -0.0615
     27 C         7.656269   7.725793   -2.963705 C.ar        1 UNL1     0.1347
     28 C         6.737699   8.246244   -2.069607 C.ar        1 UNL1     0.0342
     29 C         5.858028   7.293195   -1.513693 C.ar        1 UNL1     0.1435
     30 C         5.878812   5.944706   -1.871971 C.ar        1 UNL1     0.0774
     31 O         4.83543   7.661564   -0.711444 O.3        1 UNL1     -0.4436
     32 C         3.929433   6.548483   -0.744505 C.3        1 UNL1     0.3143
     33 C         4.780183   5.356672   -1.134409 C.2        1 UNL1     0.2504
     34 C         6.506762   9.705603   -1.792048 C.3        1 UNL1     -0.0327
     35 O         3.484104   6.321682   0.598437 O.2        1 UNL1     -0.4528
     36 C         -0.018154   4.887695   0.305251 C.3        1 UNL1     0.0854
     37 C         -0.506053   3.598856   -0.461801 C.3        1 UNL1     0.0236
     38 C         -1.311076   2.541993   0.436376 C.3        1 UNL1     0.1131
     39 C         -0.698646   2.051431   1.809893 C.3        1 UNL1     0.0200
     40 C         0.917555   1.653747   1.920248 C.3        1 UNL1     0.0661
     41 C         1.76033   0.620096   0.871962 C.3        1 UNL1     0.0091
     42 C         3.51218   0.646973   0.328176 C.3        1 UNL1     0.0661
     43 C         8.587176   5.91376   -4.418902 C.2        1 UNL1     0.2131
     44 O         9.135419   6.653367   -5.215865 O.2        1 UNL1     -0.2851
     45 O         8.629425   8.564259   -3.503502 O.3        1 UNL1     -0.5056
     46 O         4.602918   4.187333   -0.875416 O.2        1 UNL1     -0.2836
     47 C         5.614905   0.831796   1.9598 C.3        1 UNL1     -0.0566
     48 O         3.729743   -0.799061   0.574685 O.3        1 UNL1     -0.3909
     49 C         0.91871   0.384955   -0.362493 C.3        1 UNL1     -0.0577
     50 O         1.697452   2.798826   2.200028 O.3        1 UNL1     -0.3910
     51 O         -0.191879   4.874746   1.704209 O.3        1 UNL1     -0.3753
     52 C         0.517046   3.150834   -1.556102 C.3        1 UNL1     -0.0564
     53 O         -2.057257   1.516801   -0.366446 O.3        1 UNL1     -0.4608
     54 C         -2.477525   0.296992   0.095474 C.2        1 UNL1     0.3042
     55 O         -2.057412   -0.811541   -0.233916 O.2        1 UNL1     -0.2512
     56 C         -3.531924   0.388363   1.161592 C.3        1 UNL1     0.0332
     57 C         -1.323376   2.960104   2.968427 C.3        1 UNL1     -0.0567
     58 C         2.923357   6.837055   -1.882954 C.3        1 UNL1     0.0210
     59 C         -0.325122   6.162704   2.303605 C.3        1 UNL1     0.0372
     60 C         1.397201   5.272144   0.052017 C.2        1 UNL1     -0.0208
     61 C         2.354359   5.652918   0.899133 C.2        1 UNL1     0.0882
     62 H         4.998711   2.206165   0.438047 H        1 UNL1     0.0365
     63 H         6.775667   2.716642   -0.429173 H        1 UNL1     0.0576
     64 H         8.434459   0.21408   -1.123702 H        1 UNL1     0.0615
     65 H         8.865789   3.26363   -1.645295 H        1 UNL1     0.0622
     66 H         -0.630053   5.702403   -0.106912 H        1 UNL1     0.0645
     67 H         -1.302138   3.970065   -1.130392 H        1 UNL1     0.0362
     68 H         -2.182004   3.15757   0.708538 H        1 UNL1     0.0741
     69 H         -1.189408   1.132385   2.101293 H        1 UNL1     0.0359
     70 H         0.909703   1.0856   2.870095 H        1 UNL1     0.0600
     71 H         1.634763   -0.341801   1.4067 H        1 UNL1     0.0348
     72 H         3.470301   1.251017   1.246158 H        1 UNL1     0.0602
     73 H         1.560623   5.332725   -0.995299 H        1 UNL1     0.0628
     74 H         2.287368   5.567182   1.984213 H        1 UNL1     0.1022
     75 H         11.14941   0.311482   -3.314476 H        1 UNL1     0.0279
     76 H         11.236142   1.389758   -4.649803 H        1 UNL1     0.0279
     77 H         12.334502   1.547435   -3.220104 H        1 UNL1     0.0279
     78 H         9.73171   2.9375   -5.205712 H        1 UNL1     0.1553
     79 H         8.230444   1.731705   -4.738291 H        1 UNL1     0.1484
     80 H         4.435548   1.709982   -4.932668 H        1 UNL1     0.0317
     81 H         5.410403   3.043296   -5.534214 H        1 UNL1     0.0317
     82 H         7.126027   1.454927   -6.443843 H        1 UNL1     0.0428
     83 H         5.524292   1.159317   -7.083189 H        1 UNL1     0.0428
     84 H         6.819034   -1.393876   -3.935493 H        1 UNL1     0.0428
     85 H         7.94743   -0.196683   -4.467072 H        1 UNL1     0.0428
     86 H         6.650636   0.311736   -2.397124 H        1 UNL1     0.0317
     87 H         5.149705   0.235656   -3.199476 H        1 UNL1     0.0317
     88 H         7.366664   -0.893294   -7.188364 H        1 UNL1     0.0429
     89 H         6.758369   -2.199516   -6.168561 H        1 UNL1     0.0429
     90 H         4.404582   -1.021505   -7.164858 H        1 UNL1     0.0308
     91 H         6.51157   -0.989437   -9.404139 H        1 UNL1     0.0233
     92 H         4.753704   -0.806791   -9.632267 H        1 UNL1     0.0233
     93 H         5.665471   0.422659   -8.782716 H        1 UNL1     0.0233
     94 H         4.383885   -3.019532   -8.715502 H        1 UNL1     0.0233
     95 H         5.999608   -3.401851   -8.101009 H        1 UNL1     0.0233
     96 H         4.611351   -3.368488   -6.989425 H        1 UNL1     0.0233
     97 H         5.698368   9.862794   -1.08422 H        1 UNL1     0.0280
     98 H         7.389431   10.187925   -1.352143 H        1 UNL1     0.0280
     99 H         6.249935   10.223629   -2.73055 H        1 UNL1     0.0280
     100 H         8.293171   9.344011   -3.909139 H        1 UNL1     0.2922
     101 H         4.685278   0.60892   2.483036 H        1 UNL1     0.0236
     102 H         6.18947   1.610397   2.460439 H        1 UNL1     0.0236
     103 H         6.223647   -0.08121   2.069553 H        1 UNL1     0.0236
     104 H         4.105065   -0.89208   1.472154 H        1 UNL1     0.2098
     105 H         0.70043   1.28297   -0.934973 H        1 UNL1     0.0234
     106 H         1.285585   -0.402668   -1.020506 H        1 UNL1     0.0234
     107 H         0.0   -0.0   0.0 H        1 UNL1     0.0234
     108 H         1.630681   3.391358   1.426584 H        1 UNL1     0.2098
     109 H         1.50839   2.933366   -1.134607 H        1 UNL1     0.0234
     110 H         0.171836   2.292449   -2.142403 H        1 UNL1     0.0234
     111 H         0.678618   3.93728   -2.305329 H        1 UNL1     0.0234
     112 H         -3.806848   -0.615219   1.500097 H        1 UNL1     0.0342
     113 H         -3.215819   1.009893   1.998026 H        1 UNL1     0.0342
     114 H         -4.425563   0.851922   0.721494 H        1 UNL1     0.0342
     115 H         -2.420083   2.897265   2.990149 H        1 UNL1     0.0234
     116 H         -0.960591   2.715563   3.968745 H        1 UNL1     0.0234
     117 H         -1.175057   4.041769   2.807354 H        1 UNL1     0.0234
     118 H         2.102337   7.497493   -1.553176 H        1 UNL1     0.0309
     119 H         3.393487   7.267186   -2.772992 H        1 UNL1     0.0309
     120 H         2.401592   5.935231   -2.221452 H        1 UNL1     0.0309
     121 H         0.613071   6.695694   2.151711 H        1 UNL1     0.0524
     122 H         -1.1258   6.760461   1.837087 H        1 UNL1     0.0524
     123 H         -0.532221   6.063521   3.36538 H        1 UNL1     0.0524
@<TRIPOS>BOND
     1     1     2    1
     2     1    42    1
     3     2     3    2
     4     3     4    1
     5     4     5    2
     6     5     7    1
     7     6    75    1
     8     6    76    1
     9     6    77    1
    10     7     9   am
    11     9    10    1
    12    10    11    2
    13    10    43    1
    14    11    14    1
    15    11    15    1
    16    12    13   ar
    17    12    27   ar
    18    12    43    1
    19    13    14    1
    20    13    30   ar
    21    14    17    2
    22    15    16    1
    23    16    17    1
    24    16    18    1
    25    16    22    1
    26    18    19    1
    27    19    20    1
    28    20    21    1
    29    21    22    1
    30    23    24    1
    31    23    88    1
    32    23    89    1
    33    24    25    1
    34    24    26    1
    35    24    90    1
    36    25    91    1
    37    25    92    1
    38    25    93    1
    39    26    94    1
    40    26    95    1
    41    26    96    1
    42    27    28   ar
    43    28    29   ar
    44    29    30   ar
    45    29    31    1
    46    30    33    1
    47    31    32    1
    48    32    33    1
    49    32    35    1
    50    34    97    1
    51    34    98    1
    52    34    99    1
    53    35    61    1
    54    36    37    1
    55    36    60    1
    56    37    38    1
    57    38    39    1
    58    39    40    1
    59    40    41    1
    60    41    42    1
    61    45   100    1
    62    47   101    1
    63    47   102    1
    64    47   103    1
    65    48   104    1
    66    49   105    1
    67    49   106    1
    68    49   107    1
    69    50   108    1
    70    51    59    1
    71    52   109    1
    72    52   110    1
    73    52   111    1
    74    53    54    1
    75    54    55    2
    76    54    56    1
    77    56   112    1
    78    56   113    1
    79    56   114    1
    80    57   115    1
    81    57   116    1
    82    57   117    1
    83    58   118    1
    84    58   119    1
    85    58   120    1
    86    59   121    1
    87    59   122    1
    88    59   123    1
    89    60    61    2
    90     1    47    1
    91     1    62    1
    92     2    63    1
    93     3    64    1
    94     4    65    1
    95     5     6    1
    96     7     8    2
    97     9    78    1
    98    15    79    1
    99    18    80    1
   100    18    81    1
   101    19    82    1
   102    19    83    1
   103    20    23    1
   104    21    84    1
   105    21    85    1
   106    22    86    1
   107    22    87    1
   108    27    45    1
   109    28    34    1
   110    32    58    1
   111    33    46    2
   112    36    51    1
   113    36    66    1
   114    37    52    1
   115    37    67    1
   116    38    53    1
   117    38    68    1
   118    42    48    1
   119    42    72    1
   120    43    44    2
   121    60    73    1
   122    61    74    1
   123    39    69    1
   124    39    57    1
   125    40    70    1
   126    40    50    1
   127    41    71    1
   128    41    49    1
