@<TRIPOS>MOLECULE
*****
 123 128 0 0 0
SMALL
GASTEIGER

@<TRIPOS>ATOM
     1 C         5.171389   1.740044   0.477761 C.3        1 UNL1     0.0009
     2 C         6.60757   2.542734   -0.376704 C.2        1 UNL1     -0.0787
     3 C         7.887749   2.441591   -1.045252 C.2        1 UNL1     -0.0649
     4 C         8.765675   3.674389   -1.804075 C.2        1 UNL1     -0.0542
     5 C         9.784078   3.964273   -2.745298 C.2        1 UNL1     0.0115
     6 C         10.909181   3.335948   -3.612867 C.3        1 UNL1     -0.0348
     7 C         9.88068   5.446749   -3.353509 C.2        1 UNL1     0.2441
     8 O         10.706888   6.2673   -2.978539 O.2        1 UNL1     -0.2702
     9 N         9.128161   5.653886   -4.52268 N.am        1 UNL1     -0.2772
     10 C         7.846857   6.043172   -4.206391 C.2        1 UNL1     0.1049
     11 C         7.000007   5.073565   -3.911554 C.2        1 UNL1     0.0801
     12 C         6.554556   7.653552   -2.794311 C.ar        1 UNL1     0.0753
     13 C         5.794509   6.527443   -2.34396 C.ar        1 UNL1     0.0305
     14 C         5.907637   5.22089   -2.9883 C.2        1 UNL1     0.0924
     15 N         7.119892   3.744211   -4.069588 N.pl3        1 UNL1     -0.3170
     16 C         5.849684   3.147627   -3.751916 C.3        1 UNL1     0.1275
     17 N         5.217228   4.104977   -2.771507 N.2        1 UNL1     -0.2557
     18 C         4.994063   3.206957   -5.013698 C.3        1 UNL1     0.0016
     19 C         5.745145   2.520388   -6.143339 C.3        1 UNL1     0.0026
     20 N         6.013706   1.142192   -5.756712 N.3        1 UNL1     -0.3018
     21 C         6.779601   0.981674   -4.518969 C.3        1 UNL1     0.0026
     22 C         6.004648   1.674706   -3.396895 C.3        1 UNL1     0.0016
     23 C         6.454217   0.320751   -6.86659 C.3        1 UNL1     0.0012
     24 C         5.296091   0.072358   -7.845774 C.3        1 UNL1     -0.0339
     25 C         5.370636   1.017423   -9.056291 C.3        1 UNL1     -0.0615
     26 C         5.27982   -1.384661   -8.274271 C.3        1 UNL1     -0.0615
     27 C         6.353391   8.922149   -2.255505 C.ar        1 UNL1     0.1347
     28 C         5.397008   9.194373   -1.293592 C.ar        1 UNL1     0.0342
     29 C         4.694475   8.061641   -0.83042 C.ar        1 UNL1     0.1435
     30 C         4.910475   6.778717   -1.33507 C.ar        1 UNL1     0.0774
     31 O         3.655639   8.177924   0.025329 O.3        1 UNL1     -0.4436
     32 C         2.931439   6.946254   -0.113942 C.3        1 UNL1     0.3143
     33 C         3.941744   5.950805   -0.647402 C.2        1 UNL1     0.2504
     34 C         4.953617   10.561715   -0.853275 C.3        1 UNL1     -0.0327
     35 O         2.573033   6.511522   1.203557 O.2        1 UNL1     -0.4528
     36 C         -0.674357   4.584739   0.816185 C.3        1 UNL1     0.0854
     37 C         -0.983964   3.3238   -0.079191 C.3        1 UNL1     0.0236
     38 C         -1.584966   2.064625   0.711392 C.3        1 UNL1     0.1131
     39 C         -0.857181   1.533706   2.01167 C.3        1 UNL1     0.0200
     40 C         0.803838   1.385233   2.049187 C.3        1 UNL1     0.0661
     41 C         1.759156   0.61351   0.878963 C.3        1 UNL1     0.0091
     42 C         3.466092   0.972444   0.310687 C.3        1 UNL1     0.0661
     43 C         7.501657   7.44302   -3.917225 C.2        1 UNL1     0.2131
     44 O         7.901498   8.339655   -4.637579 O.2        1 UNL1     -0.2851
     45 O         7.166453   9.955339   -2.716902 O.3        1 UNL1     -0.5056
     46 O         3.955882   4.747377   -0.51544 O.2        1 UNL1     -0.2836
     47 C         5.570276   1.311315   1.915489 C.3        1 UNL1     -0.0566
     48 O         3.91232   -0.439377   0.39288 O.3        1 UNL1     -0.3909
     49 C         0.921716   0.381157   -0.358858 C.3        1 UNL1     -0.0577
     50 O         1.40711   2.602417   2.439378 O.3        1 UNL1     -0.3910
     51 O         -0.795595   4.396697   2.208081 O.3        1 UNL1     -0.3753
     52 C         0.057559   3.160291   -1.23394 C.3        1 UNL1     -0.0564
     53 O         -2.191485   1.025809   -0.186006 O.3        1 UNL1     -0.4608
     54 C         -2.427451   -0.280176   0.15554 C.2        1 UNL1     0.3042
     55 O         -1.860122   -1.280665   -0.281492 O.2        1 UNL1     -0.2512
     56 C         -3.466812   -0.442984   1.227891 C.3        1 UNL1     0.0332
     57 C         -1.574119   2.20527   3.273882 C.3        1 UNL1     -0.0567
     58 C         1.854201   7.192167   -1.195891 C.3        1 UNL1     0.0210
     59 C         -1.104986   5.577012   2.947674 C.3        1 UNL1     0.0372
     60 C         0.65523   5.211208   0.581882 C.2        1 UNL1     -0.0208
     61 C         1.570933   5.64569   1.448748 C.2        1 UNL1     0.0882
     62 H         4.697431   2.725156   0.565114 H        1 UNL1     0.0365
     63 H         6.34345   3.597115   -0.271866 H        1 UNL1     0.0576
     64 H         8.343165   1.473699   -1.26636 H        1 UNL1     0.0615
     65 H         8.281027   4.591009   -1.457077 H        1 UNL1     0.0622
     66 H         -1.418381   5.332282   0.506908 H        1 UNL1     0.0645
     67 H         -1.850359   3.634091   -0.688813 H        1 UNL1     0.0362
     68 H         -2.530443   2.503556   1.064854 H        1 UNL1     0.0741
     69 H         -1.190063   0.523404   2.208867 H        1 UNL1     0.0359
     70 H         0.916456   0.725603   2.930813 H        1 UNL1     0.0600
     71 H         1.801892   -0.407295   1.306849 H        1 UNL1     0.0348
     72 H         3.363335   1.461838   1.2901 H        1 UNL1     0.0602
     73 H         0.771096   5.407187   -0.45514 H        1 UNL1     0.0628
     74 H         1.555469   5.43615   2.518837 H        1 UNL1     0.1022
     75 H         10.933368   2.227368   -3.480579 H        1 UNL1     0.0279
     76 H         10.8067   3.441081   -4.690602 H        1 UNL1     0.0279
     77 H         11.916338   3.61701   -3.271783 H        1 UNL1     0.0279
     78 H         9.063397   4.783513   -5.046449 H        1 UNL1     0.1553
     79 H         7.782974   3.314398   -4.688066 H        1 UNL1     0.1484
     80 H         4.032353   2.717946   -4.816851 H        1 UNL1     0.0317
     81 H         4.768688   4.243837   -5.285245 H        1 UNL1     0.0317
     82 H         6.676185   3.049767   -6.394008 H        1 UNL1     0.0428
     83 H         5.118044   2.575738   -7.033693 H        1 UNL1     0.0428
     84 H         6.898764   -0.061175   -4.209005 H        1 UNL1     0.0428
     85 H         7.810109   1.347753   -4.625532 H        1 UNL1     0.0428
     86 H         6.522709   1.424348   -2.489745 H        1 UNL1     0.0317
     87 H         5.02464   1.198955   -3.269064 H        1 UNL1     0.0317
     88 H         7.250033   0.860579   -7.396265 H        1 UNL1     0.0429
     89 H         6.885924   -0.625435   -6.515685 H        1 UNL1     0.0429
     90 H         4.344894   0.24285   -7.32773 H        1 UNL1     0.0308
     91 H         6.324268   0.914915   -9.582772 H        1 UNL1     0.0233
     92 H         4.553078   0.817961   -9.753014 H        1 UNL1     0.0233
     93 H         5.277438   2.071833   -8.769291 H        1 UNL1     0.0233
     94 H         4.58556   -1.524892   -9.109839 H        1 UNL1     0.0233
     95 H         6.276028   -1.686714   -8.609379 H        1 UNL1     0.0233
     96 H         4.97   -2.038368   -7.454121 H        1 UNL1     0.0233
     97 H         4.155586   10.514256   -0.118344 H        1 UNL1     0.0280
     98 H         5.766054   11.127313   -0.378615 H        1 UNL1     0.0280
     99 H         4.587761   11.129383   -1.724479 H        1 UNL1     0.0280
     100 H         6.700041   10.706978   -3.038027 H        1 UNL1     0.2922
     101 H         4.704741   0.891167   2.42733 H        1 UNL1     0.0236
     102 H         6.034907   2.113042   2.488494 H        1 UNL1     0.0236
     103 H         6.315892   0.498759   1.913486 H        1 UNL1     0.0236
     104 H         4.328259   -0.566781   1.267942 H        1 UNL1     0.2098
     105 H         0.709357   1.279777   -0.932616 H        1 UNL1     0.0234
     106 H         1.288184   -0.4082   -1.015016 H        1 UNL1     0.0234
     107 H         0.0   -0.0   0.0 H        1 UNL1     0.0234
     108 H         1.223139   3.255608   1.737051 H        1 UNL1     0.2098
     109 H         1.084532   3.057762   -0.856414 H        1 UNL1     0.0234
     110 H         -0.171257   2.325292   -1.904881 H        1 UNL1     0.0234
     111 H         0.070012   4.037172   -1.894903 H        1 UNL1     0.0234
     112 H         -3.591497   -1.503379   1.467396 H        1 UNL1     0.0342
     113 H         -3.22834   0.133714   2.1203 H        1 UNL1     0.0342
     114 H         -4.424032   -0.071149   0.83721 H        1 UNL1     0.0342
     115 H         -2.644094   1.958947   3.314703 H        1 UNL1     0.0234
     116 H         -1.135951   1.925721   4.234043 H        1 UNL1     0.0234
     117 H         -1.610861   3.307142   3.2242 H        1 UNL1     0.0234
     118 H         0.954325   7.679701   -0.781717 H        1 UNL1     0.0309
     119 H         2.222247   7.779915   -2.042825 H        1 UNL1     0.0309
     120 H         1.464092   6.260499   -1.620057 H        1 UNL1     0.0309
     121 H         -0.265968   6.263709   2.838806 H        1 UNL1     0.0524
     122 H         -2.003857   6.087648   2.563852 H        1 UNL1     0.0524
     123 H         -1.257532   5.334743   3.995591 H        1 UNL1     0.0524
@<TRIPOS>BOND
     1     1     2    1
     2     1    42    1
     3     2     3    2
     4     3     4    1
     5     4     5    2
     6     5     7    1
     7     6    75    1
     8     6    76    1
     9     6    77    1
    10     7     9   am
    11     9    10    1
    12    10    11    2
    13    10    43    1
    14    11    14    1
    15    11    15    1
    16    12    13   ar
    17    12    27   ar
    18    12    43    1
    19    13    14    1
    20    13    30   ar
    21    14    17    2
    22    15    16    1
    23    16    17    1
    24    16    18    1
    25    16    22    1
    26    18    19    1
    27    19    20    1
    28    20    21    1
    29    21    22    1
    30    23    24    1
    31    23    88    1
    32    23    89    1
    33    24    25    1
    34    24    26    1
    35    24    90    1
    36    25    91    1
    37    25    92    1
    38    25    93    1
    39    26    94    1
    40    26    95    1
    41    26    96    1
    42    27    28   ar
    43    28    29   ar
    44    29    30   ar
    45    29    31    1
    46    30    33    1
    47    31    32    1
    48    32    33    1
    49    32    35    1
    50    34    97    1
    51    34    98    1
    52    34    99    1
    53    35    61    1
    54    36    37    1
    55    36    60    1
    56    37    38    1
    57    38    39    1
    58    39    40    1
    59    40    41    1
    60    41    42    1
    61    45   100    1
    62    47   101    1
    63    47   102    1
    64    47   103    1
    65    48   104    1
    66    49   105    1
    67    49   106    1
    68    49   107    1
    69    50   108    1
    70    51    59    1
    71    52   109    1
    72    52   110    1
    73    52   111    1
    74    53    54    1
    75    54    55    2
    76    54    56    1
    77    56   112    1
    78    56   113    1
    79    56   114    1
    80    57   115    1
    81    57   116    1
    82    57   117    1
    83    58   118    1
    84    58   119    1
    85    58   120    1
    86    59   121    1
    87    59   122    1
    88    59   123    1
    89    60    61    2
    90     1    47    1
    91     1    62    1
    92     2    63    1
    93     3    64    1
    94     4    65    1
    95     5     6    1
    96     7     8    2
    97     9    78    1
    98    15    79    1
    99    18    80    1
   100    18    81    1
   101    19    82    1
   102    19    83    1
   103    20    23    1
   104    21    84    1
   105    21    85    1
   106    22    86    1
   107    22    87    1
   108    27    45    1
   109    28    34    1
   110    32    58    1
   111    33    46    2
   112    36    51    1
   113    36    66    1
   114    37    52    1
   115    37    67    1
   116    38    53    1
   117    38    68    1
   118    42    48    1
   119    42    72    1
   120    43    44    2
   121    60    73    1
   122    61    74    1
   123    39    69    1
   124    39    57    1
   125    40    70    1
   126    40    50    1
   127    41    71    1
   128    41    49    1
