@<TRIPOS>MOLECULE
*****
 123 128 0 0 0
SMALL
GASTEIGER

@<TRIPOS>ATOM
     1 C         -0.327494   1.443917   -4.985677 C.3        1 UNL1     0.0009
     2 C         -1.140238   0.890099   -6.557227 C.2        1 UNL1     -0.0787
     3 C         -1.044363   0.381194   -7.909214 C.2        1 UNL1     -0.0649
     4 C         -2.305474   -0.092855   -8.93451 C.2        1 UNL1     -0.0542
     5 C         -2.646692   -0.851823   -10.081077 C.2        1 UNL1     0.0115
     6 C         -2.062846   -1.644963   -11.282484 C.3        1 UNL1     -0.0348
     7 C         -4.184342   -1.243824   -10.323888 C.2        1 UNL1     0.2441
     8 O         -4.899927   -0.663423   -11.128623 O.2        1 UNL1     -0.2702
     9 N         -4.580418   -2.461484   -9.743733 N.am        1 UNL1     -0.2772
     10 C         -5.005364   -2.261427   -8.450396 C.2        1 UNL1     0.1049
     11 C         -4.060471   -2.205287   -7.529392 C.2        1 UNL1     0.0801
     12 C         -6.504664   -0.825549   -7.0548 C.ar        1 UNL1     0.0753
     13 C         -5.380191   -0.625987   -6.192047 C.ar        1 UNL1     0.0305
     14 C         -4.159029   -1.416156   -6.331504 C.2        1 UNL1     0.0924
     15 N         -2.756091   -2.519384   -7.609776 N.pl3        1 UNL1     -0.3170
     16 C         -2.203772   -2.445491   -6.283224 C.3        1 UNL1     0.1275
     17 N         -3.069307   -1.436128   -5.569249 N.2        1 UNL1     -0.2557
     18 C         -2.47125   -3.786572   -5.606719 C.3        1 UNL1     0.0016
     19 C         -1.885106   -4.892282   -6.470102 C.3        1 UNL1     0.0026
     20 N         -0.455787   -4.658404   -6.622994 N.3        1 UNL1     -0.3018
     21 C         -0.096571   -3.365528   -7.209343 C.3        1 UNL1     0.0026
     22 C         -0.691516   -2.269429   -6.323623 C.3        1 UNL1     0.0016
     23 C         0.247339   -5.801553   -7.17023 C.3        1 UNL1     0.0012
     24 C         1.461677   -5.343544   -7.993253 C.3        1 UNL1     -0.0339
     25 C         1.713937   -6.275577   -9.189804 C.3        1 UNL1     -0.0615
     26 C         1.276984   -3.90258   -8.436301 C.3        1 UNL1     -0.0615
     27 C         -7.706702   -0.15524   -6.840534 C.ar        1 UNL1     0.1347
     28 C         -7.915834   0.705418   -5.777716 C.ar        1 UNL1     0.0342
     29 C         -6.779686   0.923987   -4.969904 C.ar        1 UNL1     0.1435
     30 C         -5.558321   0.287265   -5.193671 C.ar        1 UNL1     0.0774
     31 O         -6.852577   1.64944   -3.832621 O.3        1 UNL1     -0.4436
     32 C         -5.694374   1.259933   -3.079147 C.3        1 UNL1     0.3143
     33 C         -4.71259   0.732821   -4.106019 C.2        1 UNL1     0.2504
     34 C         -9.242718   1.261192   -5.341145 C.3        1 UNL1     -0.0327
     35 O         -5.122633   2.453342   -2.529474 O.2        1 UNL1     -0.4528
     36 C         -3.461418   1.410211   0.720192 C.3        1 UNL1     0.0854
     37 C         -2.34244   0.325751   0.963823 C.3        1 UNL1     0.0236
     38 C         -1.034292   0.862564   1.720345 C.3        1 UNL1     0.1131
     39 C         -0.302821   2.16368   1.196591 C.3        1 UNL1     0.0200
     40 C         -0.049281   2.390992   -0.436346 C.3        1 UNL1     0.0661
     41 C         0.628696   1.260041   -1.503541 C.3        1 UNL1     0.0091
     42 C         0.307493   0.963815   -3.285249 C.3        1 UNL1     0.0661
     43 C         -6.377139   -1.837628   -8.132619 C.2        1 UNL1     0.2131
     44 O         -7.329863   -2.378207   -8.664436 O.2        1 UNL1     -0.2851
     45 O         -8.737265   -0.371118   -7.753099 O.3        1 UNL1     -0.5056
     46 O         -3.503498   0.706994   -4.048718 O.2        1 UNL1     -0.2836
     47 C         0.299624   2.852004   -5.170055 C.3        1 UNL1     -0.0566
     48 O         1.743309   0.916383   -3.653078 O.3        1 UNL1     -0.3909
     49 C         0.654186   -0.093326   -0.828825 C.3        1 UNL1     -0.0577
     50 O         -1.169479   3.010065   -1.036036 O.3        1 UNL1     -0.3910
     51 O         -3.110246   2.738998   1.033938 O.3        1 UNL1     -0.3753
     52 C         -2.25964   -0.699555   -0.21382 C.3        1 UNL1     -0.0564
     53 O         -0.153761   -0.232345   2.247759 O.3        1 UNL1     -0.4608
     54 C         1.056628   -0.601981   1.722158 C.2        1 UNL1     0.3042
     55 O         2.138111   -0.659745   2.30602 O.2        1 UNL1     -0.2512
     56 C         0.982973   -1.026337   0.282987 C.3        1 UNL1     0.0332
     57 C         -0.855592   3.402102   2.044488 C.3        1 UNL1     -0.0567
     58 C         -6.137963   0.09209   -2.16761 C.3        1 UNL1     0.0210
     59 C         -4.118932   3.708025   0.752148 C.3        1 UNL1     0.0372
     60 C         -4.029369   1.429707   -0.655385 C.2        1 UNL1     -0.0208
     61 C         -4.296187   2.454622   -1.466003 C.2        1 UNL1     0.0882
     62 H         -1.321398   1.598764   -4.548769 H        1 UNL1     0.0365
     63 H         -2.187716   1.097707   -6.328842 H        1 UNL1     0.0576
     64 H         -0.085213   0.094731   -8.346341 H        1 UNL1     0.0615
     65 H         -3.200046   0.307002   -8.449392 H        1 UNL1     0.0622
     66 H         -4.28571   1.109855   1.382291 H        1 UNL1     0.0645
     67 H         -2.778371   -0.342584   1.726615 H        1 UNL1     0.0362
     68 H         -1.483212   1.148092   2.683915 H        1 UNL1     0.0741
     69 H         0.7018   2.183416   1.597537 H        1 UNL1     0.0359
     70 H         0.720104   3.185888   -0.401019 H        1 UNL1     0.0600
     71 H         1.695317   1.5527   -1.44331 H        1 UNL1     0.0348
     72 H         -0.06222   1.97792   -3.074964 H        1 UNL1     0.0602
     73 H         -4.344785   0.450237   -0.916919 H        1 UNL1     0.0628
     74 H         -3.95709   3.477518   -1.298868 H        1 UNL1     0.1022
     75 H         -2.832348   -2.332379   -11.709521 H        1 UNL1     0.0279
     76 H         -1.763313   -1.060916   -12.1498 H        1 UNL1     0.0279
     77 H         -1.279515   -2.356223   -10.982146 H        1 UNL1     0.0279
     78 H         -3.787228   -3.098525   -9.710483 H        1 UNL1     0.1553
     79 H         -2.366334   -3.099993   -8.329439 H        1 UNL1     0.1484
     80 H         -2.02152   -3.778449   -4.606498 H        1 UNL1     0.0317
     81 H         -3.545629   -3.946469   -5.466025 H        1 UNL1     0.0317
     82 H         -2.383363   -4.951926   -7.448926 H        1 UNL1     0.0428
     83 H         -2.088635   -5.839778   -5.970225 H        1 UNL1     0.0428
     84 H         0.981965   -3.182054   -7.239497 H        1 UNL1     0.0428
     85 H         -0.409149   -3.292257   -8.260173 H        1 UNL1     0.0428
     86 H         -0.299457   -1.344694   -6.704597 H        1 UNL1     0.0317
     87 H         -0.264587   -2.329749   -5.315065 H        1 UNL1     0.0317
     88 H         0.604062   -6.415864   -6.333172 H        1 UNL1     0.0429
     89 H         -0.422124   -6.432044   -7.769458 H        1 UNL1     0.0429
     90 H         2.351881   -5.348335   -7.353153 H        1 UNL1     0.0308
     91 H         2.590331   -5.958608   -9.763012 H        1 UNL1     0.0233
     92 H         1.858294   -7.305088   -8.853831 H        1 UNL1     0.0233
     93 H         0.868206   -6.297423   -9.887727 H        1 UNL1     0.0233
     94 H         0.210774   -3.656618   -8.486658 H        1 UNL1     0.0233
     95 H         1.745105   -3.226963   -7.714936 H        1 UNL1     0.0233
     96 H         1.718747   -3.72824   -9.4214 H        1 UNL1     0.0233
     97 H         -9.239006   2.346621   -5.308568 H        1 UNL1     0.0280
     98 H         -10.053529   0.983896   -6.027401 H        1 UNL1     0.0280
     99 H         -9.486497   0.886073   -4.333697 H        1 UNL1     0.0280
     100 H         -9.368059   0.325444   -7.803318 H        1 UNL1     0.2922
     101 H         0.147712   3.443224   -4.26726 H        1 UNL1     0.0236
     102 H         -0.057676   3.367032   -6.061159 H        1 UNL1     0.0236
     103 H         1.394573   2.80486   -5.292763 H        1 UNL1     0.0236
     104 H         2.061037   0.007703   -3.484788 H        1 UNL1     0.2098
     105 H         0.292538   -0.910602   -1.447761 H        1 UNL1     0.0234
     106 H         1.608858   -0.357581   -0.374185 H        1 UNL1     0.0234
     107 H         0.0   0.0   0.0 H        1 UNL1     0.0234
     108 H         -1.873751   2.336471   -1.099582 H        1 UNL1     0.2098
     109 H         -3.000864   -1.505102   -0.116908 H        1 UNL1     0.0234
     110 H         -2.354066   -0.231379   -1.199537 H        1 UNL1     0.0234
     111 H         -1.281749   -1.198029   -0.24845 H        1 UNL1     0.0234
     112 H         1.986136   -1.036063   -0.153951 H        1 UNL1     0.0342
     113 H         0.49627   -1.99338   0.165553 H        1 UNL1     0.0342
     114 H         0.384842   -0.284121   -0.263383 H        1 UNL1     0.0342
     115 H         -1.153262   3.10228   3.05873 H        1 UNL1     0.0234
     116 H         -0.146033   4.226312   2.140675 H        1 UNL1     0.0234
     117 H         -1.803798   3.812534   1.656684 H        1 UNL1     0.0234
     118 H         -5.287227   -0.54233   -1.863036 H        1 UNL1     0.0309
     119 H         -6.674674   0.424899   -1.273528 H        1 UNL1     0.0309
     120 H         -6.806094   -0.609685   -2.678705 H        1 UNL1     0.0309
     121 H         -3.776142   4.664667   1.145451 H        1 UNL1     0.0524
     122 H         -4.286369   3.834959   -0.330391 H        1 UNL1     0.0524
     123 H         -5.055667   3.423232   1.222801 H        1 UNL1     0.0524
@<TRIPOS>BOND
     1     1     2    1
     2     1    42    1
     3     2     3    2
     4     3     4    1
     5     4     5    2
     6     5     7    1
     7     6    75    1
     8     6    76    1
     9     6    77    1
    10     7     9   am
    11     9    10    1
    12    10    11    2
    13    10    43    1
    14    11    14    1
    15    11    15    1
    16    12    13   ar
    17    12    27   ar
    18    12    43    1
    19    13    14    1
    20    13    30   ar
    21    14    17    2
    22    15    16    1
    23    16    17    1
    24    16    18    1
    25    16    22    1
    26    18    19    1
    27    19    20    1
    28    20    21    1
    29    21    22    1
    30    23    24    1
    31    23    88    1
    32    23    89    1
    33    24    25    1
    34    24    26    1
    35    24    90    1
    36    25    91    1
    37    25    92    1
    38    25    93    1
    39    26    94    1
    40    26    95    1
    41    26    96    1
    42    27    28   ar
    43    28    29   ar
    44    29    30   ar
    45    29    31    1
    46    30    33    1
    47    31    32    1
    48    32    33    1
    49    32    35    1
    50    34    97    1
    51    34    98    1
    52    34    99    1
    53    35    61    1
    54    36    37    1
    55    36    60    1
    56    37    38    1
    57    38    39    1
    58    39    40    1
    59    40    41    1
    60    41    42    1
    61    45   100    1
    62    47   101    1
    63    47   102    1
    64    47   103    1
    65    48   104    1
    66    49   105    1
    67    49   106    1
    68    49   107    1
    69    50   108    1
    70    51    59    1
    71    52   109    1
    72    52   110    1
    73    52   111    1
    74    53    54    1
    75    54    55    2
    76    54    56    1
    77    56   112    1
    78    56   113    1
    79    56   114    1
    80    57   115    1
    81    57   116    1
    82    57   117    1
    83    58   118    1
    84    58   119    1
    85    58   120    1
    86    59   121    1
    87    59   122    1
    88    59   123    1
    89    60    61    2
    90     1    47    1
    91     1    62    1
    92     2    63    1
    93     3    64    1
    94     4    65    1
    95     5     6    1
    96     7     8    2
    97     9    78    1
    98    15    79    1
    99    18    80    1
   100    18    81    1
   101    19    82    1
   102    19    83    1
   103    20    23    1
   104    21    84    1
   105    21    85    1
   106    22    86    1
   107    22    87    1
   108    27    45    1
   109    28    34    1
   110    32    58    1
   111    33    46    2
   112    36    51    1
   113    36    66    1
   114    37    52    1
   115    37    67    1
   116    38    53    1
   117    38    68    1
   118    42    48    1
   119    42    72    1
   120    43    44    2
   121    60    73    1
   122    61    74    1
   123    39    69    1
   124    39    57    1
   125    40    70    1
   126    40    50    1
   127    41    71    1
   128    41    49    1
