@<TRIPOS>MOLECULE
*****
 123 128 0 0 0
SMALL
GASTEIGER

@<TRIPOS>ATOM
     1 C         5.167727   1.744842   0.499706 C.3        1 UNL1     0.0009
     2 C         6.606336   2.549979   -0.348348 C.2        1 UNL1     -0.0787
     3 C         7.889259   2.450932   -1.011933 C.2        1 UNL1     -0.0649
     4 C         8.768742   3.685443   -1.766153 C.2        1 UNL1     -0.0542
     5 C         9.790513   3.977372   -2.703084 C.2        1 UNL1     0.0115
     6 C         10.919756   3.351149   -3.566784 C.3        1 UNL1     -0.0348
     7 C         9.887797   5.46052   -3.309546 C.2        1 UNL1     0.2441
     8 O         10.711568   6.281678   -2.930565 O.2        1 UNL1     -0.2702
     9 N         9.139655   5.667868   -4.481485 N.am        1 UNL1     -0.2772
     10 C         7.856664   6.055382   -4.169896 C.2        1 UNL1     0.1049
     11 C         7.009781   5.084525   -3.879295 C.2        1 UNL1     0.0801
     12 C         6.556938   7.662963   -2.761446 C.ar        1 UNL1     0.0753
     13 C         5.796426   6.535562   -2.315133 C.ar        1 UNL1     0.0305
     14 C         5.913608   5.229736   -2.960222 C.2        1 UNL1     0.0924
     15 N         7.131828   3.755458   -4.038075 N.pl3        1 UNL1     -0.3170
     16 C         5.861069   3.157114   -3.725967 C.3        1 UNL1     0.1275
     17 N         5.223642   4.112827   -2.747181 N.2        1 UNL1     -0.2557
     18 C         5.010363   3.216621   -4.991059 C.3        1 UNL1     0.0016
     19 C         5.76669   2.531964   -6.118358 C.3        1 UNL1     0.0026
     20 N         6.03532   1.153723   -5.731942 N.3        1 UNL1     -0.3018
     21 C         6.796512   0.992946   -4.491335 C.3        1 UNL1     0.0026
     22 C         6.016338   1.684046   -3.371691 C.3        1 UNL1     0.0016
     23 C         6.481156   0.333816   -6.840828 C.3        1 UNL1     0.0012
     24 C         5.326072   0.081354   -7.822561 C.3        1 UNL1     -0.0339
     25 C         5.344711   1.088833   -8.983895 C.3        1 UNL1     -0.0615
     26 C         5.373013   -1.351316   -8.324591 C.3        1 UNL1     -0.0615
     27 C         6.35218   8.930829   -2.222272 C.ar        1 UNL1     0.1347
     28 C         5.391697   9.201059   -1.26389 C.ar        1 UNL1     0.0342
     29 C         4.688655   8.067089   -0.804534 C.ar        1 UNL1     0.1435
     30 C         4.908129   6.784883   -1.309508 C.ar        1 UNL1     0.0774
     31 O         3.646318   8.181382   0.047215 O.3        1 UNL1     -0.4436
     32 C         2.9241   6.949006   -0.096044 C.3        1 UNL1     0.3143
     33 C         3.937653   5.955218   -0.626428 C.2        1 UNL1     0.2504
     34 C         4.944988   10.567481   -0.824069 C.3        1 UNL1     -0.0327
     35 O         2.561003   6.512644   1.219632 O.2        1 UNL1     -0.4528
     36 C         -0.682599   4.58247   0.81768 C.3        1 UNL1     0.0854
     37 C         -0.987211   3.322002   -0.08007 C.3        1 UNL1     0.0236
     38 C         -1.589868   2.061405   0.706978 C.3        1 UNL1     0.1131
     39 C         -0.866603   1.530126   2.009629 C.3        1 UNL1     0.0200
     40 C         0.794427   1.383536   2.053562 C.3        1 UNL1     0.0661
     41 C         1.755246   0.613998   0.886407 C.3        1 UNL1     0.0091
     42 C         3.463993   0.975428   0.3252 C.3        1 UNL1     0.0661
     43 C         7.508705   7.454563   -3.880808 C.2        1 UNL1     0.2131
     44 O         7.910344   8.352324   -4.598754 O.2        1 UNL1     -0.2851
     45 O         7.165859   9.965383   -2.679508 O.3        1 UNL1     -0.5056
     46 O         3.952665   4.751685   -0.495517 O.2        1 UNL1     -0.2836
     47 C         5.561438   1.315245   1.938602 C.3        1 UNL1     -0.0566
     48 O         3.911529   -0.435953   0.407856 O.3        1 UNL1     -0.3909
     49 C         0.922964   0.381822   -0.354921 C.3        1 UNL1     -0.0577
     50 O         1.394745   2.601055   2.447249 O.3        1 UNL1     -0.3910
     51 O         -0.809108   4.393003   2.208913 O.3        1 UNL1     -0.3753
     52 C         0.059047   3.160764   -1.23085 C.3        1 UNL1     -0.0564
     53 O         -2.191639   1.022719   -0.19376 O.3        1 UNL1     -0.4608
     54 C         -2.414938   -0.287202   0.141164 C.2        1 UNL1     0.3042
     55 O         -1.842548   -1.280393   -0.305802 O.2        1 UNL1     -0.2512
     56 C         -3.445883   -0.464962   1.219249 C.3        1 UNL1     0.0332
     57 C         -1.58929   2.199694   3.269619 C.3        1 UNL1     -0.0567
     58 C         1.850853   7.194674   -1.182008 C.3        1 UNL1     0.0210
     59 C         -1.161404   5.564224   2.943755 C.3        1 UNL1     0.0372
     60 C         0.647175   5.21069   0.5892 C.2        1 UNL1     -0.0208
     61 C         1.558949   5.645428   1.460071 C.2        1 UNL1     0.0882
     62 H         4.692288   2.729325   0.586094 H        1 UNL1     0.0365
     63 H         6.340584   3.603957   -0.243584 H        1 UNL1     0.0576
     64 H         8.346665   1.483771   -1.232132 H        1 UNL1     0.0615
     65 H         8.281669   4.601182   -1.420228 H        1 UNL1     0.0622
     66 H         -1.426262   5.32944   0.506157 H        1 UNL1     0.0645
     67 H         -1.851554   3.631856   -0.69282 H        1 UNL1     0.0362
     68 H         -2.537239   2.498916   1.057111 H        1 UNL1     0.0741
     69 H         -1.199089   0.519258   2.204583 H        1 UNL1     0.0359
     70 H         0.904331   0.723222   2.935019 H        1 UNL1     0.0600
     71 H         1.797476   -0.407152   1.313521 H        1 UNL1     0.0348
     72 H         3.356807   1.463798   1.30465 H        1 UNL1     0.0602
     73 H         0.766903   5.407761   -0.447177 H        1 UNL1     0.0628
     74 H         1.539507   5.434883   2.529898 H        1 UNL1     0.1022
     75 H         10.963283   2.245857   -3.413584 H        1 UNL1     0.0279
     76 H         10.807953   3.433901   -4.645543 H        1 UNL1     0.0279
     77 H         11.924485   3.655248   -3.23854 H        1 UNL1     0.0279
     78 H         9.077966   4.797905   -5.006306 H        1 UNL1     0.1553
     79 H         7.797841   3.326982   -4.654328 H        1 UNL1     0.1484
     80 H         4.048452   2.726318   -4.798457 H        1 UNL1     0.0317
     81 H         4.78486   4.253491   -5.26254 H        1 UNL1     0.0317
     82 H         6.698097   3.062649   -6.364866 H        1 UNL1     0.0428
     83 H         5.143041   2.587413   -7.011128 H        1 UNL1     0.0428
     84 H         6.91566   -0.050051   -4.181862 H        1 UNL1     0.0428
     85 H         7.827008   1.360313   -4.593495 H        1 UNL1     0.0428
     86 H         6.531107   1.433448   -2.462734 H        1 UNL1     0.0317
     87 H         5.036385   1.207045   -3.248164 H        1 UNL1     0.0317
     88 H         7.276243   0.876424   -7.368756 H        1 UNL1     0.0429
     89 H         6.915401   -0.610847   -6.488952 H        1 UNL1     0.0429
     90 H         4.373211   0.180795   -7.289288 H        1 UNL1     0.0308
     91 H         6.292678   1.05012   -9.528837 H        1 UNL1     0.0233
     92 H         4.523848   0.893554   -9.677911 H        1 UNL1     0.0233
     93 H         5.216441   2.122921   -8.641776 H        1 UNL1     0.0233
     94 H         4.676269   -1.481937   -9.159648 H        1 UNL1     0.0233
     95 H         6.378251   -1.588531   -8.684019 H        1 UNL1     0.0233
     96 H         5.103857   -2.059526   -7.535945 H        1 UNL1     0.0233
     97 H         4.150402   10.518285   -0.085528 H        1 UNL1     0.0280
     98 H         5.757329   11.137059   -0.354026 H        1 UNL1     0.0280
     99 H         4.5731   11.132159   -1.694663 H        1 UNL1     0.0280
     100 H         8.089164   9.796358   -2.611975 H        1 UNL1     0.2922
     101 H         4.697923   0.880784   2.441833 H        1 UNL1     0.0236
     102 H         6.010385   2.120781   2.518725 H        1 UNL1     0.0236
     103 H         6.31832   0.513172   1.93884 H        1 UNL1     0.0236
     104 H         4.332076   -0.561375   1.280999 H        1 UNL1     0.2098
     105 H         0.712463   1.280616   -0.92909 H        1 UNL1     0.0234
     106 H         1.292512   -0.407015   -1.009977 H        1 UNL1     0.0234
     107 H         0.0   -0.0   0.0 H        1 UNL1     0.0234
     108 H         1.195357   3.26009   1.754655 H        1 UNL1     0.2098
     109 H         1.082412   3.040491   -0.848792 H        1 UNL1     0.0234
     110 H         -0.176097   2.337588   -1.914102 H        1 UNL1     0.0234
     111 H         0.086274   4.046052   -1.880058 H        1 UNL1     0.0234
     112 H         -3.5731   -1.528967   1.440732 H        1 UNL1     0.0342
     113 H         -3.197393   0.094593   2.119802 H        1 UNL1     0.0342
     114 H         -4.404765   -0.082188   0.84349 H        1 UNL1     0.0342
     115 H         -2.653706   1.931946   3.319815 H        1 UNL1     0.0234
     116 H         -1.13949   1.938972   4.229698 H        1 UNL1     0.0234
     117 H         -1.648964   3.300021   3.209096 H        1 UNL1     0.0234
     118 H         0.949411   7.682195   -0.771238 H        1 UNL1     0.0309
     119 H         2.221983   7.78233   -2.027659 H        1 UNL1     0.0309
     120 H         1.462392   6.262913   -1.607479 H        1 UNL1     0.0309
     121 H         -0.36226   6.292205   2.806752 H        1 UNL1     0.0524
     122 H         -2.094822   6.023031   2.577335 H        1 UNL1     0.0524
     123 H         -1.275367   5.326606   3.997626 H        1 UNL1     0.0524
@<TRIPOS>BOND
     1     1     2    1
     2     1    42    1
     3     2     3    2
     4     3     4    1
     5     4     5    2
     6     5     7    1
     7     6    75    1
     8     6    76    1
     9     6    77    1
    10     7     9   am
    11     9    10    1
    12    10    11    2
    13    10    43    1
    14    11    14    1
    15    11    15    1
    16    12    13   ar
    17    12    27   ar
    18    12    43    1
    19    13    14    1
    20    13    30   ar
    21    14    17    2
    22    15    16    1
    23    16    17    1
    24    16    18    1
    25    16    22    1
    26    18    19    1
    27    19    20    1
    28    20    21    1
    29    21    22    1
    30    23    24    1
    31    23    88    1
    32    23    89    1
    33    24    25    1
    34    24    26    1
    35    24    90    1
    36    25    91    1
    37    25    92    1
    38    25    93    1
    39    26    94    1
    40    26    95    1
    41    26    96    1
    42    27    28   ar
    43    28    29   ar
    44    29    30   ar
    45    29    31    1
    46    30    33    1
    47    31    32    1
    48    32    33    1
    49    32    35    1
    50    34    97    1
    51    34    98    1
    52    34    99    1
    53    35    61    1
    54    36    37    1
    55    36    60    1
    56    37    38    1
    57    38    39    1
    58    39    40    1
    59    40    41    1
    60    41    42    1
    61    45   100    1
    62    47   101    1
    63    47   102    1
    64    47   103    1
    65    48   104    1
    66    49   105    1
    67    49   106    1
    68    49   107    1
    69    50   108    1
    70    51    59    1
    71    52   109    1
    72    52   110    1
    73    52   111    1
    74    53    54    1
    75    54    55    2
    76    54    56    1
    77    56   112    1
    78    56   113    1
    79    56   114    1
    80    57   115    1
    81    57   116    1
    82    57   117    1
    83    58   118    1
    84    58   119    1
    85    58   120    1
    86    59   121    1
    87    59   122    1
    88    59   123    1
    89    60    61    2
    90     1    47    1
    91     1    62    1
    92     2    63    1
    93     3    64    1
    94     4    65    1
    95     5     6    1
    96     7     8    2
    97     9    78    1
    98    15    79    1
    99    18    80    1
   100    18    81    1
   101    19    82    1
   102    19    83    1
   103    20    23    1
   104    21    84    1
   105    21    85    1
   106    22    86    1
   107    22    87    1
   108    27    45    1
   109    28    34    1
   110    32    58    1
   111    33    46    2
   112    36    51    1
   113    36    66    1
   114    37    52    1
   115    37    67    1
   116    38    53    1
   117    38    68    1
   118    42    48    1
   119    42    72    1
   120    43    44    2
   121    60    73    1
   122    61    74    1
   123    39    69    1
   124    39    57    1
   125    40    70    1
   126    40    50    1
   127    41    71    1
   128    41    49    1
