@<TRIPOS>MOLECULE
*****
 123 128 0 0 0
SMALL
GASTEIGER

@<TRIPOS>ATOM
     1 C         -4.145096   -0.826955   0.05726 C.3        1 UNL1     0.0009
     2 C         -5.297431   -0.924932   -1.391727 C.2        1 UNL1     -0.0787
     3 C         -6.351482   -0.348336   -2.199538 C.2        1 UNL1     -0.0649
     4 C         -6.990703   -0.938749   -3.651835 C.2        1 UNL1     -0.0542
     5 C         -7.718497   -0.605109   -4.820629 C.2        1 UNL1     0.0115
     6 C         -8.570981   0.503937   -5.496358 C.3        1 UNL1     -0.0348
     7 C         -7.64489   -1.587087   -6.088418 C.2        1 UNL1     0.2441
     8 O         -8.539504   -2.370213   -6.376351 O.2        1 UNL1     -0.2702
     9 N         -6.605745   -1.305173   -6.992217 N.am        1 UNL1     -0.2772
     10 C         -5.45541   -1.963034   -6.621716 C.2        1 UNL1     0.1049
     11 C         -4.721001   -1.374435   -5.695209 C.2        1 UNL1     0.0801
     12 C         -4.585694   -4.207224   -5.940143 C.ar        1 UNL1     0.0753
     13 C         -3.977001   -3.545985   -4.826202 C.ar        1 UNL1     0.0305
     14 C         -3.916113   -2.088533   -4.741481 C.2        1 UNL1     0.0924
     15 N         -4.797176   -0.129475   -5.194411 N.pl3        1 UNL1     -0.3170
     16 C         -3.660199   0.068863   -4.335226 C.3        1 UNL1     0.1275
     17 N         -3.311804   -1.315004   -3.844046 N.2        1 UNL1     -0.2557
     18 C         -2.497225   0.509872   -5.218801 C.3        1 UNL1     0.0016
     19 C         -2.919216   1.745937   -5.99704 C.3        1 UNL1     0.0026
     20 N         -3.284887   2.79168   -5.051664 N.3        1 UNL1     -0.3018
     21 C         -4.35521   2.438197   -4.116877 C.3        1 UNL1     0.0026
     22 C         -3.908178   1.197014   -3.342589 C.3        1 UNL1     0.0016
     23 C         -3.413316   4.094464   -5.67368 C.3        1 UNL1     0.0012
     24 C         -4.203792   5.049414   -4.765398 C.3        1 UNL1     -0.0339
     25 C         -5.703722   5.034011   -5.103081 C.3        1 UNL1     -0.0615
     26 C         -3.955591   4.705777   -3.306944 C.3        1 UNL1     -0.0615
     27 C         -4.533542   -5.592718   -6.073573 C.ar        1 UNL1     0.1347
     28 C         -3.869736   -6.415843   -5.181453 C.ar        1 UNL1     0.0342
     29 C         -3.319903   -5.747444   -4.066963 C.ar        1 UNL1     0.1435
     30 C         -3.395545   -4.363945   -3.901342 C.ar        1 UNL1     0.0774
     31 O         -2.548543   -6.395203   -3.166731 O.3        1 UNL1     -0.4436
     32 C         -1.816402   -5.354961   -2.501343 C.3        1 UNL1     0.3143
     33 C         -2.648812   -4.102658   -2.688542 C.2        1 UNL1     0.2504
     34 C         -3.557584   -7.871637   -5.389596 C.3        1 UNL1     -0.0327
     35 O         -1.825706   -5.656564   -1.100557 O.2        1 UNL1     -0.4528
     36 C         1.402028   -4.225953   0.293421 C.3        1 UNL1     0.0854
     37 C         1.937617   -2.743292   0.244616 C.3        1 UNL1     0.0236
     38 C         2.301487   -2.108815   1.671775 C.3        1 UNL1     0.1131
     39 C         1.250232   -2.175908   2.851873 C.3        1 UNL1     0.0200
     40 C         -0.360272   -1.846706   2.56843 C.3        1 UNL1     0.0661
     41 C         -0.968314   -0.490449   1.750836 C.3        1 UNL1     0.0091
     42 C         -2.459305   -0.305018   0.698237 C.3        1 UNL1     0.0661
     43 C         -5.197211   -3.361654   -6.995282 C.2        1 UNL1     0.2131
     44 O         -5.386989   -3.741686   -8.136464 O.2        1 UNL1     -0.2851
     45 O         -5.190558   -6.161069   -7.162952 O.3        1 UNL1     -0.5056
     46 O         -2.700647   -3.1199   -1.983308 O.2        1 UNL1     -0.2836
     47 C         -4.916165   -1.091853   1.378344 C.3        1 UNL1     -0.0566
     48 O         -2.91451   0.939221   1.364401 O.3        1 UNL1     -0.3909
     49 C         0.170035   0.194545   1.028037 C.3        1 UNL1     -0.0577
     50 O         -1.043288   -3.010583   2.148187 O.3        1 UNL1     -0.3910
     51 O         1.144866   -4.74609   1.578238 O.3        1 UNL1     -0.3753
     52 C         1.243794   -1.910846   -0.88259 C.3        1 UNL1     -0.0564
     53 O         3.124156   -0.856946   1.580317 O.3        1 UNL1     -0.4608
     54 C         2.669586   0.412754   1.823543 C.2        1 UNL1     0.3042
     55 O         2.703404   1.026808   2.889204 O.2        1 UNL1     -0.2512
     56 C         2.130786   1.102788   0.60278 C.3        1 UNL1     0.0332
     57 C         1.603721   -3.458027   3.74035 C.3        1 UNL1     -0.0567
     58 C         -0.487765   -5.1912   -3.275574 C.3        1 UNL1     0.0210
     59 C         -0.100886   -5.429168   1.710042 C.3        1 UNL1     0.0372
     60 C         0.185547   -4.482386   -0.524857 C.2        1 UNL1     -0.0208
     61 C         -0.928179   -5.154612   -0.2308 C.2        1 UNL1     0.0882
     62 H         -3.70967   -1.785889   -0.248617 H        1 UNL1     0.0365
     63 H         -5.068677   -1.924766   -1.766525 H        1 UNL1     0.0576
     64 H         -6.733113   0.65735   -2.009639 H        1 UNL1     0.0615
     65 H         -6.614815   -1.96415   -3.70422 H        1 UNL1     0.0622
     66 H         2.203496   -4.824096   -0.162563 H        1 UNL1     0.0645
     67 H         2.936545   -2.834132   -0.216306 H        1 UNL1     0.0362
     68 H         3.118454   -2.783425   1.970087 H        1 UNL1     0.0741
     69 H         1.515632   -1.437616   3.596787 H        1 UNL1     0.0359
     70 H         -0.70688   -1.682268   3.606642 H        1 UNL1     0.0600
     71 H         -1.126684   0.19573   2.605841 H        1 UNL1     0.0348
     72 H         -2.622003   -1.212742   1.297304 H        1 UNL1     0.0602
     73 H         0.352673   -4.139989   -1.515857 H        1 UNL1     0.0628
     74 H         -1.200929   -5.487899   0.771081 H        1 UNL1     0.1022
     75 H         -9.106748   0.09792   -6.388063 H        1 UNL1     0.0279
     76 H         -9.383163   0.919871   -4.904388 H        1 UNL1     0.0279
     77 H         -7.956562   1.293386   -5.95348 H        1 UNL1     0.0279
     78 H         -6.40483   -0.307372   -6.981985 H        1 UNL1     0.1553
     79 H         -5.270968   0.627164   -5.652616 H        1 UNL1     0.1484
     80 H         -1.624755   0.713358   -4.586222 H        1 UNL1     0.0317
     81 H         -2.204833   -0.289223   -5.908443 H        1 UNL1     0.0317
     82 H         -3.747604   1.529199   -6.687482 H        1 UNL1     0.0428
     83 H         -2.076062   2.042357   -6.621761 H        1 UNL1     0.0428
     84 H         -4.55561   3.210089   -3.36732 H        1 UNL1     0.0428
     85 H         -5.318469   2.307132   -4.629001 H        1 UNL1     0.0428
     86 H         -4.651253   1.047407   -2.581376 H        1 UNL1     0.0317
     87 H         -2.99953   1.41968   -2.769986 H        1 UNL1     0.0317
     88 H         -2.405297   4.504491   -5.818829 H        1 UNL1     0.0429
     89 H         -3.875657   4.018592   -6.666281 H        1 UNL1     0.0429
     90 H         -3.82574   6.069623   -4.901272 H        1 UNL1     0.0308
     91 H         -6.107306   6.048925   -5.167672 H        1 UNL1     0.0233
     92 H         -5.8815   4.516511   -6.048701 H        1 UNL1     0.0233
     93 H         -6.296362   4.50345   -4.348019 H        1 UNL1     0.0233
     94 H         -2.941084   4.99992   -3.016959 H        1 UNL1     0.0233
     95 H         -4.659179   5.249205   -2.670068 H        1 UNL1     0.0233
     96 H         -4.069966   3.633574   -3.12455 H        1 UNL1     0.0233
     97 H         -2.690621   -8.188309   -4.817473 H        1 UNL1     0.0280
     98 H         -4.382503   -8.521602   -5.069737 H        1 UNL1     0.0280
     99 H         -3.353507   -8.056372   -6.456986 H        1 UNL1     0.0280
     100 H         -5.032737   -5.729362   -7.984137 H        1 UNL1     0.2922
     101 H         -5.831231   -0.500215   1.394929 H        1 UNL1     0.0236
     102 H         -4.309057   -0.931167   2.268616 H        1 UNL1     0.0236
     103 H         -5.257589   -2.1376   1.456027 H        1 UNL1     0.0236
     104 H         -3.85445   0.81902   1.60322 H        1 UNL1     0.2098
     105 H         0.202652   1.272923   1.161631 H        1 UNL1     0.0234
     106 H         1.152932   -0.238858   1.212434 H        1 UNL1     0.0234
     107 H         0.0   0.0   0.0 H        1 UNL1     0.0234
     108 H         -1.279175   -2.885266   1.208814 H        1 UNL1     0.2098
     109 H         0.448315   -1.26177   -0.490639 H        1 UNL1     0.0234
     110 H         1.947766   -1.312929   -1.471371 H        1 UNL1     0.0234
     111 H         0.759571   -2.559315   -1.624858 H        1 UNL1     0.0234
     112 H         2.284742   0.473328   -0.278936 H        1 UNL1     0.0342
     113 H         1.081004   1.370316   0.713367 H        1 UNL1     0.0342
     114 H         2.697545   2.032514   0.455955 H        1 UNL1     0.0342
     115 H         2.163567   -4.210108   3.16752 H        1 UNL1     0.0234
     116 H         2.18291   -3.230475   4.637462 H        1 UNL1     0.0234
     117 H         0.716935   -4.039564   4.045906 H        1 UNL1     0.0234
     118 H         -0.650321   -5.103471   -4.364098 H        1 UNL1     0.0309
     119 H         0.107182   -4.338843   -2.932458 H        1 UNL1     0.0309
     120 H         0.161286   -6.069273   -3.187097 H        1 UNL1     0.0309
     121 H         -0.053975   -6.027962   2.619218 H        1 UNL1     0.0524
     122 H         -0.950378   -4.733761   1.814011 H        1 UNL1     0.0524
     123 H         -0.271969   -6.068468   0.848578 H        1 UNL1     0.0524
@<TRIPOS>BOND
     1     1     2    1
     2     1    42    1
     3     2     3    2
     4     3     4    1
     5     4     5    2
     6     5     7    1
     7     6    75    1
     8     6    76    1
     9     6    77    1
    10     7     9   am
    11     9    10    1
    12    10    11    2
    13    10    43    1
    14    11    14    1
    15    11    15    1
    16    12    13   ar
    17    12    27   ar
    18    12    43    1
    19    13    14    1
    20    13    30   ar
    21    14    17    2
    22    15    16    1
    23    16    17    1
    24    16    18    1
    25    16    22    1
    26    18    19    1
    27    19    20    1
    28    20    21    1
    29    21    22    1
    30    23    24    1
    31    23    88    1
    32    23    89    1
    33    24    25    1
    34    24    26    1
    35    24    90    1
    36    25    91    1
    37    25    92    1
    38    25    93    1
    39    26    94    1
    40    26    95    1
    41    26    96    1
    42    27    28   ar
    43    28    29   ar
    44    29    30   ar
    45    29    31    1
    46    30    33    1
    47    31    32    1
    48    32    33    1
    49    32    35    1
    50    34    97    1
    51    34    98    1
    52    34    99    1
    53    35    61    1
    54    36    37    1
    55    36    60    1
    56    37    38    1
    57    38    39    1
    58    39    40    1
    59    40    41    1
    60    41    42    1
    61    45   100    1
    62    47   101    1
    63    47   102    1
    64    47   103    1
    65    48   104    1
    66    49   105    1
    67    49   106    1
    68    49   107    1
    69    50   108    1
    70    51    59    1
    71    52   109    1
    72    52   110    1
    73    52   111    1
    74    53    54    1
    75    54    55    2
    76    54    56    1
    77    56   112    1
    78    56   113    1
    79    56   114    1
    80    57   115    1
    81    57   116    1
    82    57   117    1
    83    58   118    1
    84    58   119    1
    85    58   120    1
    86    59   121    1
    87    59   122    1
    88    59   123    1
    89    60    61    2
    90     1    47    1
    91     1    62    1
    92     2    63    1
    93     3    64    1
    94     4    65    1
    95     5     6    1
    96     7     8    2
    97     9    78    1
    98    15    79    1
    99    18    80    1
   100    18    81    1
   101    19    82    1
   102    19    83    1
   103    20    23    1
   104    21    84    1
   105    21    85    1
   106    22    86    1
   107    22    87    1
   108    27    45    1
   109    28    34    1
   110    32    58    1
   111    33    46    2
   112    36    51    1
   113    36    66    1
   114    37    52    1
   115    37    67    1
   116    38    53    1
   117    38    68    1
   118    42    48    1
   119    42    72    1
   120    43    44    2
   121    60    73    1
   122    61    74    1
   123    39    69    1
   124    39    57    1
   125    40    70    1
   126    40    50    1
   127    41    71    1
   128    41    49    1
