@<TRIPOS>MOLECULE
*****
 123 128 0 0 0
SMALL
GASTEIGER

@<TRIPOS>ATOM
     1 C         -2.747386   0.461229   -3.186218 C.3        1 UNL1     0.0009
     2 C         -4.596731   0.357083   -3.108022 C.2        1 UNL1     -0.0787
     3 C         -5.826159   -0.363298   -3.364151 C.2        1 UNL1     -0.0649
     4 C         -7.39836   0.065347   -2.905015 C.2        1 UNL1     -0.0542
     5 C         -8.71367   -0.411622   -2.682443 C.2        1 UNL1     0.0115
     6 C         -9.654335   -1.634581   -2.863673 C.3        1 UNL1     -0.0348
     7 C         -9.726606   0.47997   -1.812952 C.2        1 UNL1     0.2441
     8 O         -10.610673   1.161597   -2.313286 O.2        1 UNL1     -0.2702
     9 N         -9.699444   0.223609   -0.431035 N.am        1 UNL1     -0.2772
     10 C         -8.74508   1.0017   0.183037 C.2        1 UNL1     0.1049
     11 C         -7.506457   0.54539   0.14041 C.2        1 UNL1     0.0801
     12 C         -7.913324   3.354661   0.3536 C.ar        1 UNL1     0.0753
     13 C         -6.607572   2.82886   0.094463 C.ar        1 UNL1     0.0305
     14 C         -6.34443   1.391656   0.110373 C.2        1 UNL1     0.0924
     15 N         -7.042949   -0.662569   -0.223627 N.pl3        1 UNL1     -0.3170
     16 C         -5.635979   -0.701604   0.074978 C.3        1 UNL1     0.1275
     17 N         -5.191974   0.73842   -0.008182 N.2        1 UNL1     -0.2557
     18 C         -5.495646   -1.104099   1.539903 C.3        1 UNL1     0.0016
     19 C         -6.219521   -2.424002   1.753096 C.3        1 UNL1     0.0026
     20 N         -5.631884   -3.426837   0.87558 N.3        1 UNL1     -0.3018
     21 C         -5.663871   -3.099788   -0.551439 C.3        1 UNL1     0.0026
     22 C         -4.927246   -1.772951   -0.743227 C.3        1 UNL1     0.0016
     23 C         -6.040111   -4.776919   1.209155 C.3        1 UNL1     0.0012
     24 C         -5.404288   -5.219459   2.536424 C.3        1 UNL1     -0.0339
     25 C         -5.083195   -6.723101   2.5324 C.3        1 UNL1     -0.0615
     26 C         -4.168829   -4.384806   2.825866 C.3        1 UNL1     -0.0615
     27 C         -8.131691   4.726486   0.45622 C.ar        1 UNL1     0.1347
     28 C         -7.119674   5.664704   0.358152 C.ar        1 UNL1     0.0342
     29 C         -5.850995   5.12682   0.054342 C.ar        1 UNL1     0.1435
     30 C         -5.623922   3.757281   -0.087147 C.ar        1 UNL1     0.0774
     31 O         -4.743708   5.900485   0.035221 O.3        1 UNL1     -0.4436
     32 C         -3.653325   4.976481   0.169953 C.3        1 UNL1     0.3143
     33 C         -4.19796   3.647759   -0.313869 C.2        1 UNL1     0.2504
     34 C         -7.232855   7.123169   0.704807 C.3        1 UNL1     -0.0327
     35 O         -2.639384   5.375497   -0.760618 O.2        1 UNL1     -0.4528
     36 C         0.664277   4.32783   0.787383 C.3        1 UNL1     0.0854
     37 C         1.138472   2.896405   1.249644 C.3        1 UNL1     0.0236
     38 C         2.517565   2.398756   0.599881 C.3        1 UNL1     0.1131
     39 C         2.713807   2.460334   -0.968547 C.3        1 UNL1     0.0200
     40 C         1.489622   1.975952   -1.992845 C.3        1 UNL1     0.0661
     41 C         0.628367   0.517967   -1.892211 C.3        1 UNL1     0.0091
     42 C         -1.112105   0.131682   -2.324581 C.3        1 UNL1     0.0661
     43 C         -9.011433   2.386937   0.598402 C.2        1 UNL1     0.2131
     44 O         -10.034427   2.666953   1.196576 O.2        1 UNL1     -0.2851
     45 O         -9.440211   5.157618   0.664398 O.3        1 UNL1     -0.5056
     46 O         -3.593696   2.717055   -0.798131 O.2        1 UNL1     -0.2836
     47 C         -2.284664   0.753288   -4.638998 C.3        1 UNL1     -0.0566
     48 O         -0.770818   -1.095981   -3.083186 O.3        1 UNL1     -0.3909
     49 C         0.900317   -0.117613   -0.547007 C.3        1 UNL1     -0.0577
     50 O         0.601913   3.044517   -2.253353 O.3        1 UNL1     -0.3910
     51 O         1.4059   4.914665   -0.258108 O.3        1 UNL1     -0.3753
     52 C         -0.068772   1.929576   1.479322 C.3        1 UNL1     -0.0564
     53 O         3.121051   1.218063   1.302801 O.3        1 UNL1     -0.4608
     54 C         4.449586   1.064346   1.601625 C.2        1 UNL1     0.3042
     55 O         5.270846   0.361518   1.013916 O.2        1 UNL1     -0.2512
     56 C         4.910062   1.915863   2.750361 C.3        1 UNL1     0.0332
     57 C         3.470962   3.828054   -1.306528 C.3        1 UNL1     -0.0567
     58 C         -3.353479   4.871418   1.68342 C.3        1 UNL1     0.0210
     59 C         2.242131   6.001253   0.136747 C.3        1 UNL1     0.0372
     60 C         -0.770008   4.420761   0.400924 C.2        1 UNL1     -0.0208
     61 C         -1.346863   5.015118   -0.64441 C.2        1 UNL1     0.0882
     62 H         -2.799387   1.429409   -2.67374 H        1 UNL1     0.0365
     63 H         -4.839416   1.34341   -2.707107 H        1 UNL1     0.0576
     64 H         -5.82124   -1.381652   -3.759169 H        1 UNL1     0.0615
     65 H         -7.305797   1.112629   -2.604823 H        1 UNL1     0.0622
     66 H         0.777018   4.957858   1.680915 H        1 UNL1     0.0645
     67 H         1.43154   3.038711   2.304357 H        1 UNL1     0.0362
     68 H         3.199055   3.159983   1.009305 H        1 UNL1     0.0741
     69 H         3.527365   1.802397   -1.243596 H        1 UNL1     0.0359
     70 H         2.062781   1.857223   -2.932234 H        1 UNL1     0.0600
     71 H         1.243423   -0.116354   -2.560269 H        1 UNL1     0.0348
     72 H         -0.8671   1.062751   -2.855994 H        1 UNL1     0.0602
     73 H         -1.368788   4.0239   1.182725 H        1 UNL1     0.0628
     74 H         -0.807585   5.394719   -1.512925 H        1 UNL1     0.1022
     75 H         -9.090239   -2.505172   -3.277074 H        1 UNL1     0.0279
     76 H         -10.092479   -2.048029   -1.958046 H        1 UNL1     0.0279
     77 H         -10.411907   -1.476271   -3.645161 H        1 UNL1     0.0279
     78 H         -9.451667   -0.7502   -0.268616 H        1 UNL1     0.1553
     79 H         -7.6125   -1.487554   -0.267718 H        1 UNL1     0.1484
     80 H         -4.43046   -1.186935   1.787456 H        1 UNL1     0.0317
     81 H         -5.911624   -0.33435   2.198765 H        1 UNL1     0.0317
     82 H         -7.300997   -2.328381   1.576524 H        1 UNL1     0.0428
     83 H         -6.108406   -2.691511   2.804354 H        1 UNL1     0.0428
     84 H         -5.146018   -3.830399   -1.180603 H        1 UNL1     0.0428
     85 H         -6.689594   -3.088041   -0.945231 H        1 UNL1     0.0428
     86 H         -4.854571   -1.633085   -1.805839 H        1 UNL1     0.0317
     87 H         -3.881519   -1.876056   -0.42871 H        1 UNL1     0.0317
     88 H         -7.131831   -4.784881   1.324822 H        1 UNL1     0.0429
     89 H         -5.797255   -5.478239   0.400486 H        1 UNL1     0.0429
     90 H         -6.10334   -5.013874   3.355738 H        1 UNL1     0.0308
     91 H         -4.589211   -7.021823   1.602967 H        1 UNL1     0.0233
     92 H         -4.443083   -6.983678   3.378548 H        1 UNL1     0.0233
     93 H         -5.983195   -7.342587   2.627653 H        1 UNL1     0.0233
     94 H         -3.596433   -4.829557   3.647082 H        1 UNL1     0.0233
     95 H         -3.52371   -4.353778   1.943358 H        1 UNL1     0.0233
     96 H         -4.434989   -3.361393   3.104707 H        1 UNL1     0.0233
     97 H         -6.525966   7.414756   1.475855 H        1 UNL1     0.0280
     98 H         -7.022347   7.770758   -0.156338 H        1 UNL1     0.0280
     99 H         -8.250541   7.337806   1.069966 H        1 UNL1     0.0280
     100 H         -10.074535   4.779366   0.081149 H        1 UNL1     0.2922
     101 H         -1.273757   1.160234   -4.628084 H        1 UNL1     0.0236
     102 H         -2.976164   1.390561   -5.189175 H        1 UNL1     0.0236
     103 H         -2.20952   -0.16665   -5.242537 H        1 UNL1     0.0236
     104 H         -0.779026   -0.86746   -4.033281 H        1 UNL1     0.2098
     105 H         1.127239   -1.179913   -0.589853 H        1 UNL1     0.0234
     106 H         1.640287   0.40252   0.061132 H        1 UNL1     0.0234
     107 H         0.0   0.0   0.0 H        1 UNL1     0.0234
     108 H         -0.20125   2.662625   -2.656907 H        1 UNL1     0.2098
     109 H         -0.750323   2.293511   2.260828 H        1 UNL1     0.0234
     110 H         -0.635914   1.724467   0.564979 H        1 UNL1     0.0234
     111 H         0.264643   0.938162   1.813805 H        1 UNL1     0.0234
     112 H         5.979623   1.761773   2.922525 H        1 UNL1     0.0342
     113 H         4.687483   2.970245   2.593575 H        1 UNL1     0.0342
     114 H         4.373676   1.593113   3.653294 H        1 UNL1     0.0342
     115 H         4.138545   3.722033   -2.172715 H        1 UNL1     0.0234
     116 H         2.802502   4.667481   -1.507957 H        1 UNL1     0.0234
     117 H         4.184329   4.140782   -0.524702 H        1 UNL1     0.0234
     118 H         -2.387817   5.336692   1.948038 H        1 UNL1     0.0309
     119 H         -4.141933   5.302426   2.30854 H        1 UNL1     0.0309
     120 H         -3.234339   3.834893   2.017377 H        1 UNL1     0.0309
     121 H         2.385433   6.640354   -0.734098 H        1 UNL1     0.0524
     122 H         1.782704   6.616617   0.928132 H        1 UNL1     0.0524
     123 H         3.199595   5.629411   0.490427 H        1 UNL1     0.0524
@<TRIPOS>BOND
     1     1     2    1
     2     1    42    1
     3     2     3    2
     4     3     4    1
     5     4     5    2
     6     5     7    1
     7     6    75    1
     8     6    76    1
     9     6    77    1
    10     7     9   am
    11     9    10    1
    12    10    11    2
    13    10    43    1
    14    11    14    1
    15    11    15    1
    16    12    13   ar
    17    12    27   ar
    18    12    43    1
    19    13    14    1
    20    13    30   ar
    21    14    17    2
    22    15    16    1
    23    16    17    1
    24    16    18    1
    25    16    22    1
    26    18    19    1
    27    19    20    1
    28    20    21    1
    29    21    22    1
    30    23    24    1
    31    23    88    1
    32    23    89    1
    33    24    25    1
    34    24    26    1
    35    24    90    1
    36    25    91    1
    37    25    92    1
    38    25    93    1
    39    26    94    1
    40    26    95    1
    41    26    96    1
    42    27    28   ar
    43    28    29   ar
    44    29    30   ar
    45    29    31    1
    46    30    33    1
    47    31    32    1
    48    32    33    1
    49    32    35    1
    50    34    97    1
    51    34    98    1
    52    34    99    1
    53    35    61    1
    54    36    37    1
    55    36    60    1
    56    37    38    1
    57    38    39    1
    58    39    40    1
    59    40    41    1
    60    41    42    1
    61    45   100    1
    62    47   101    1
    63    47   102    1
    64    47   103    1
    65    48   104    1
    66    49   105    1
    67    49   106    1
    68    49   107    1
    69    50   108    1
    70    51    59    1
    71    52   109    1
    72    52   110    1
    73    52   111    1
    74    53    54    1
    75    54    55    2
    76    54    56    1
    77    56   112    1
    78    56   113    1
    79    56   114    1
    80    57   115    1
    81    57   116    1
    82    57   117    1
    83    58   118    1
    84    58   119    1
    85    58   120    1
    86    59   121    1
    87    59   122    1
    88    59   123    1
    89    60    61    2
    90     1    47    1
    91     1    62    1
    92     2    63    1
    93     3    64    1
    94     4    65    1
    95     5     6    1
    96     7     8    2
    97     9    78    1
    98    15    79    1
    99    18    80    1
   100    18    81    1
   101    19    82    1
   102    19    83    1
   103    20    23    1
   104    21    84    1
   105    21    85    1
   106    22    86    1
   107    22    87    1
   108    27    45    1
   109    28    34    1
   110    32    58    1
   111    33    46    2
   112    36    51    1
   113    36    66    1
   114    37    52    1
   115    37    67    1
   116    38    53    1
   117    38    68    1
   118    42    48    1
   119    42    72    1
   120    43    44    2
   121    60    73    1
   122    61    74    1
   123    39    69    1
   124    39    57    1
   125    40    70    1
   126    40    50    1
   127    41    71    1
   128    41    49    1
