@<TRIPOS>MOLECULE
*****
 123 128 0 0 0
SMALL
GASTEIGER

@<TRIPOS>ATOM
     1 C         5.168442   1.743011   0.498705 C.3        1 UNL1     0.0009
     2 C         6.607032   2.548016   -0.349506 C.2        1 UNL1     -0.0787
     3 C         7.889709   2.448817   -1.013543 C.2        1 UNL1     -0.0649
     4 C         8.76934   3.683338   -1.767575 C.2        1 UNL1     -0.0542
     5 C         9.790901   3.975302   -2.704724 C.2        1 UNL1     0.0115
     6 C         10.919666   3.349051   -3.569029 C.3        1 UNL1     -0.0348
     7 C         9.888459   5.458651   -3.310649 C.2        1 UNL1     0.2441
     8 O         10.712614   6.279402   -2.93162 O.2        1 UNL1     -0.2702
     9 N         9.140005   5.666686   -4.482267 N.am        1 UNL1     -0.2772
     10 C         7.857237   6.054487   -4.170115 C.2        1 UNL1     0.1049
     11 C         7.01014   5.083788   -3.879611 C.2        1 UNL1     0.0801
     12 C         6.558477   7.661941   -2.760629 C.ar        1 UNL1     0.0753
     13 C         5.797751   6.53461   -2.314502 C.ar        1 UNL1     0.0305
     14 C         5.914311   5.228995   -2.960129 C.2        1 UNL1     0.0924
     15 N         7.131714   3.754743   -4.038941 N.pl3        1 UNL1     -0.3170
     16 C         5.860867   3.156682   -3.726651 C.3        1 UNL1     0.1275
     17 N         5.224059   4.112222   -2.747293 N.2        1 UNL1     -0.2557
     18 C         5.009771   3.216945   -4.991445 C.3        1 UNL1     0.0016
     19 C         5.765516   2.532479   -6.119251 C.3        1 UNL1     0.0026
     20 N         6.033834   1.154005   -5.73345 N.3        1 UNL1     -0.3018
     21 C         6.795375   0.992511   -4.493151 C.3        1 UNL1     0.0026
     22 C         6.015782   1.68343   -3.372989 C.3        1 UNL1     0.0016
     23 C         6.479051   0.334383   -6.842794 C.3        1 UNL1     0.0012
     24 C         5.32357   0.082663   -7.824251 C.3        1 UNL1     -0.0339
     25 C         5.342154   1.090581   -8.985204 C.3        1 UNL1     -0.0615
     26 C         5.369894   -1.34983   -8.326844 C.3        1 UNL1     -0.0615
     27 C         6.354296   8.929665   -2.220903 C.ar        1 UNL1     0.1347
     28 C         5.394208   9.199832   -1.262107 C.ar        1 UNL1     0.0342
     29 C         4.690954   8.065909   -0.802958 C.ar        1 UNL1     0.1435
     30 C         4.909859   6.783827   -1.308494 C.ar        1 UNL1     0.0774
     31 O         3.648929   8.180206   0.049172 O.3        1 UNL1     -0.4436
     32 C         2.926274   6.948114   -0.094326 C.3        1 UNL1     0.3143
     33 C         3.93934   5.954208   -0.625419 C.2        1 UNL1     0.2504
     34 C         4.948075   10.566227   -0.821618 C.3        1 UNL1     -0.0327
     35 O         2.563464   6.511363   1.221299 O.2        1 UNL1     -0.4528
     36 C         -0.68088   4.582373   0.819656 C.3        1 UNL1     0.0854
     37 C         -0.986183   3.322346   -0.078478 C.3        1 UNL1     0.0236
     38 C         -1.588985   2.061638   0.708282 C.3        1 UNL1     0.1131
     39 C         -0.865468   1.52963   2.010495 C.3        1 UNL1     0.0200
     40 C         0.795529   1.382497   2.053835 C.3        1 UNL1     0.0661
     41 C         1.755727   0.613102   0.886075 C.3        1 UNL1     0.0091
     42 C         3.464407   0.974205   0.324455 C.3        1 UNL1     0.0661
     43 C         7.509816   7.453667   -3.880377 C.2        1 UNL1     0.2131
     44 O         7.911508   8.351576   -4.59811 O.2        1 UNL1     -0.2851
     45 O         7.168155   9.964135   -2.678005 O.3        1 UNL1     -0.5056
     46 O         3.954012   4.750621   -0.494974 O.2        1 UNL1     -0.2836
     47 C         5.562481   1.312738   1.937308 C.3        1 UNL1     -0.0566
     48 O         3.911522   -0.43735   0.406424 O.3        1 UNL1     -0.3909
     49 C         0.922971   0.381665   -0.355073 C.3        1 UNL1     -0.0577
     50 O         1.396361   2.599674   2.447794 O.3        1 UNL1     -0.3910
     51 O         -0.807   4.392412   2.210857 O.3        1 UNL1     -0.3753
     52 C         0.059652   3.161216   -1.229658 C.3        1 UNL1     -0.0564
     53 O         -2.191377   1.023488   -0.192659 O.3        1 UNL1     -0.4608
     54 C         -2.415374   -0.286387   0.141977 C.2        1 UNL1     0.3042
     55 O         -1.843553   -1.279789   -0.305251 O.2        1 UNL1     -0.2512
     56 C         -3.446354   -0.463829   1.220081 C.3        1 UNL1     0.0332
     57 C         -1.587536   2.198945   3.270975 C.3        1 UNL1     -0.0567
     58 C         1.852754   7.194539   -1.179849 C.3        1 UNL1     0.0210
     59 C         -1.158687   5.563464   2.946263 C.3        1 UNL1     0.0372
     60 C         0.649019   5.210259   0.590987 C.2        1 UNL1     -0.0208
     61 C         1.561212   5.644373   1.46173 C.2        1 UNL1     0.0882
     62 H         4.693343   2.727611   0.585624 H        1 UNL1     0.0365
     63 H         6.341648   3.602038   -0.244252 H        1 UNL1     0.0576
     64 H         8.346737   1.481595   -1.234261 H        1 UNL1     0.0615
     65 H         8.282669   4.599099   -1.421141 H        1 UNL1     0.0622
     66 H         -1.424407   5.329698   0.50866 H        1 UNL1     0.0645
     67 H         -1.850625   3.632709   -0.690829 H        1 UNL1     0.0362
     68 H         -2.536105   2.499316   1.058888 H        1 UNL1     0.0741
     69 H         -1.198211   0.518793   2.205169 H        1 UNL1     0.0359
     70 H         0.905508   0.72181   2.935004 H        1 UNL1     0.0600
     71 H         1.797771   -0.408226   1.312783 H        1 UNL1     0.0348
     72 H         3.357693   1.462233   1.304126 H        1 UNL1     0.0602
     73 H         0.768475   5.407688   -0.445352 H        1 UNL1     0.0628
     74 H         1.542049   5.433424   2.531483 H        1 UNL1     0.1022
     75 H         10.962892   2.243687   -3.416266 H        1 UNL1     0.0279
     76 H         10.80754   3.432253   -4.64772 H        1 UNL1     0.0279
     77 H         11.924598   3.652706   -3.240993 H        1 UNL1     0.0279
     78 H         9.07787   4.796944   -5.007401 H        1 UNL1     0.1553
     79 H         7.797393   3.326292   -4.655573 H        1 UNL1     0.1484
     80 H         4.047766   2.726873   -4.79872 H        1 UNL1     0.0317
     81 H         4.784509   4.253989   -5.262456 H        1 UNL1     0.0317
     82 H         6.697012   3.062963   -6.365857 H        1 UNL1     0.0428
     83 H         5.141596   2.588468   -7.011798 H        1 UNL1     0.0428
     84 H         6.914292   -0.050642   -4.184116 H        1 UNL1     0.0428
     85 H         7.825954   1.359591   -4.595503 H        1 UNL1     0.0428
     86 H         6.530765   1.43232   -2.464296 H        1 UNL1     0.0317
     87 H         5.035718   1.206692   -3.249329 H        1 UNL1     0.0317
     88 H         7.27414   0.87694   -7.370771 H        1 UNL1     0.0429
     89 H         6.91311   -0.610553   -6.49142 H        1 UNL1     0.0429
     90 H         4.370913   0.182202   -7.290631 H        1 UNL1     0.0308
     91 H         6.290487   1.052796   -9.529573 H        1 UNL1     0.0233
     92 H         4.521871   0.894925   -9.6798 H        1 UNL1     0.0233
     93 H         5.212877   2.124444   -8.642787 H        1 UNL1     0.0233
     94 H         4.673124   -1.479811   -9.16198 H        1 UNL1     0.0233
     95 H         6.37504   -1.587349   -8.686328 H        1 UNL1     0.0233
     96 H         5.100393   -2.058231   -7.538488 H        1 UNL1     0.0233
     97 H         4.153712   10.516999   -0.082839 H        1 UNL1     0.0280
     98 H         5.760749   11.135367   -0.351619 H        1 UNL1     0.0280
     99 H         4.576084   11.131356   -1.691875 H        1 UNL1     0.0280
     100 H         6.702261   10.715017   -3.001643 H        1 UNL1     0.2922
     101 H         4.69879   0.879069   2.44092 H        1 UNL1     0.0236
     102 H         6.012567   2.117702   2.517342 H        1 UNL1     0.0236
     103 H         6.318538   0.509887   1.93699 H        1 UNL1     0.0236
     104 H         4.329782   -0.563977   1.280492 H        1 UNL1     0.2098
     105 H         0.712569   1.280746   -0.92883 H        1 UNL1     0.0234
     106 H         1.292057   -0.407038   -1.010551 H        1 UNL1     0.0234
     107 H         0.0   -0.0   0.0 H        1 UNL1     0.0234
     108 H         1.196959   3.259038   1.755518 H        1 UNL1     0.2098
     109 H         1.083876   3.046663   -0.848141 H        1 UNL1     0.0234
     110 H         -0.172679   2.334523   -1.909617 H        1 UNL1     0.0234
     111 H         0.082544   4.044187   -1.88218 H        1 UNL1     0.0234
     112 H         -3.573009   -1.527722   1.442424 H        1 UNL1     0.0342
     113 H         -3.198284   0.096604   2.120203 H        1 UNL1     0.0342
     114 H         -4.4054   -0.081896   0.843888 H        1 UNL1     0.0342
     115 H         -2.65202   1.931515   3.321412 H        1 UNL1     0.0234
     116 H         -1.137508   1.937712   4.230809 H        1 UNL1     0.0234
     117 H         -1.64688   3.299313   3.210893 H        1 UNL1     0.0234
     118 H         0.951599   7.682189   -0.768601 H        1 UNL1     0.0309
     119 H         2.223798   7.782401   -2.025394 H        1 UNL1     0.0309
     120 H         1.46386   6.263065   -1.605552 H        1 UNL1     0.0309
     121 H         -0.359357   6.291244   2.80928 H        1 UNL1     0.0524
     122 H         -2.092078   6.022707   2.58032 H        1 UNL1     0.0524
     123 H         -1.272385   5.325477   4.000079 H        1 UNL1     0.0524
@<TRIPOS>BOND
     1     1     2    1
     2     1    42    1
     3     2     3    2
     4     3     4    1
     5     4     5    2
     6     5     7    1
     7     6    75    1
     8     6    76    1
     9     6    77    1
    10     7     9   am
    11     9    10    1
    12    10    11    2
    13    10    43    1
    14    11    14    1
    15    11    15    1
    16    12    13   ar
    17    12    27   ar
    18    12    43    1
    19    13    14    1
    20    13    30   ar
    21    14    17    2
    22    15    16    1
    23    16    17    1
    24    16    18    1
    25    16    22    1
    26    18    19    1
    27    19    20    1
    28    20    21    1
    29    21    22    1
    30    23    24    1
    31    23    88    1
    32    23    89    1
    33    24    25    1
    34    24    26    1
    35    24    90    1
    36    25    91    1
    37    25    92    1
    38    25    93    1
    39    26    94    1
    40    26    95    1
    41    26    96    1
    42    27    28   ar
    43    28    29   ar
    44    29    30   ar
    45    29    31    1
    46    30    33    1
    47    31    32    1
    48    32    33    1
    49    32    35    1
    50    34    97    1
    51    34    98    1
    52    34    99    1
    53    35    61    1
    54    36    37    1
    55    36    60    1
    56    37    38    1
    57    38    39    1
    58    39    40    1
    59    40    41    1
    60    41    42    1
    61    45   100    1
    62    47   101    1
    63    47   102    1
    64    47   103    1
    65    48   104    1
    66    49   105    1
    67    49   106    1
    68    49   107    1
    69    50   108    1
    70    51    59    1
    71    52   109    1
    72    52   110    1
    73    52   111    1
    74    53    54    1
    75    54    55    2
    76    54    56    1
    77    56   112    1
    78    56   113    1
    79    56   114    1
    80    57   115    1
    81    57   116    1
    82    57   117    1
    83    58   118    1
    84    58   119    1
    85    58   120    1
    86    59   121    1
    87    59   122    1
    88    59   123    1
    89    60    61    2
    90     1    47    1
    91     1    62    1
    92     2    63    1
    93     3    64    1
    94     4    65    1
    95     5     6    1
    96     7     8    2
    97     9    78    1
    98    15    79    1
    99    18    80    1
   100    18    81    1
   101    19    82    1
   102    19    83    1
   103    20    23    1
   104    21    84    1
   105    21    85    1
   106    22    86    1
   107    22    87    1
   108    27    45    1
   109    28    34    1
   110    32    58    1
   111    33    46    2
   112    36    51    1
   113    36    66    1
   114    37    52    1
   115    37    67    1
   116    38    53    1
   117    38    68    1
   118    42    48    1
   119    42    72    1
   120    43    44    2
   121    60    73    1
   122    61    74    1
   123    39    69    1
   124    39    57    1
   125    40    70    1
   126    40    50    1
   127    41    71    1
   128    41    49    1
