@<TRIPOS>MOLECULE
*****
 123 128 0 0 0
SMALL
GASTEIGER

@<TRIPOS>ATOM
     1 C         5.057561   2.049854   0.477245 C.3        1 UNL1     0.0009
     2 C         6.402931   3.01666   -0.354803 C.2        1 UNL1     -0.0787
     3 C         7.672238   3.060842   -1.049751 C.2        1 UNL1     -0.0649
     4 C         8.427667   4.403187   -1.752456 C.2        1 UNL1     -0.0542
     5 C         9.397656   4.829297   -2.693005 C.2        1 UNL1     0.0115
     6 C         10.552062   4.346828   -3.613816 C.3        1 UNL1     -0.0348
     7 C         9.357136   6.345818   -3.217897 C.2        1 UNL1     0.2441
     8 O         10.120057   7.211328   -2.81124 O.2        1 UNL1     -0.2702
     9 N         8.564717   6.552641   -4.360459 N.am        1 UNL1     -0.2772
     10 C         7.262616   6.814403   -4.000826 C.2        1 UNL1     0.1049
     11 C         6.506122   5.762036   -3.746932 C.2        1 UNL1     0.0801
     12 C         5.871646   8.22989   -2.478022 C.ar        1 UNL1     0.0753
     13 C         5.218056   7.020597   -2.079224 C.ar        1 UNL1     0.0305
     14 C         5.425619   5.765655   -2.798313 C.2        1 UNL1     0.0924
     15 N         6.732895   4.45825   -3.981971 N.pl3        1 UNL1     -0.3170
     16 C         5.524031   3.740017   -3.676946 C.3        1 UNL1     0.1275
     17 N         4.835478   4.585222   -2.633276 N.2        1 UNL1     -0.2557
     18 C         4.639194   3.796172   -4.918563 C.3        1 UNL1     0.0016
     19 C         5.420122   3.238587   -6.097902 C.3        1 UNL1     0.0026
     20 N         5.810938   1.868821   -5.794535 N.3        1 UNL1     -0.3018
     21 C         6.614289   1.705739   -4.58111 C.3        1 UNL1     0.0026
     22 C         5.808878   2.268156   -3.408552 C.3        1 UNL1     0.0016
     23 C         6.294116   1.149747   -6.95648 C.3        1 UNL1     0.0012
     24 C         5.139689   0.858676   -7.928248 C.3        1 UNL1     -0.0339
     25 C         5.108873   1.871762   -9.084433 C.3        1 UNL1     -0.0615
     26 C         5.235569   -0.568754   -8.43818 C.3        1 UNL1     -0.0615
     27 C         5.57724   9.445438   -1.864928 C.ar        1 UNL1     0.1347
     28 C         4.622653   9.582675   -0.87297 C.ar        1 UNL1     0.0342
     29 C         4.027194   8.370942   -0.462728 C.ar        1 UNL1     0.1435
     30 C         4.338316   7.140516   -1.042791 C.ar        1 UNL1     0.0774
     31 O         3.001145   8.351906   0.415831 O.3        1 UNL1     -0.4436
     32 C         2.379238   7.073024   0.219453 C.3        1 UNL1     0.3143
     33 C         3.457133   6.197243   -0.386653 C.2        1 UNL1     0.2504
     34 C         4.07655   10.881432   -0.34847 C.3        1 UNL1     -0.0327
     35 O         2.08705   6.537833   1.51616 O.2        1 UNL1     -0.4528
     36 C         -0.996146   4.368018   1.075829 C.3        1 UNL1     0.0854
     37 C         -1.21901   3.136571   0.115937 C.3        1 UNL1     0.0236
     38 C         -1.695656   1.789615   0.844127 C.3        1 UNL1     0.1131
     39 C         -0.898047   1.251362   2.099665 C.3        1 UNL1     0.0200
     40 C         0.769989   1.241794   2.100369 C.3        1 UNL1     0.0661
     41 C         1.760606   0.618959   0.872213 C.3        1 UNL1     0.0091
     42 C         3.418928   1.151391   0.296119 C.3        1 UNL1     0.0661
     43 C         6.808343   8.162097   -3.627049 C.2        1 UNL1     0.2131
     44 O         7.116312   9.127518   -4.30222 O.2        1 UNL1     -0.2851
     45 O         6.29115   10.567367   -2.280916 O.3        1 UNL1     -0.5056
     46 O         3.574369   4.993876   -0.323272 O.2        1 UNL1     -0.2836
     47 C         5.521969   1.577953   1.881388 C.3        1 UNL1     -0.0566
     48 O         3.982931   -0.220099   0.290649 O.3        1 UNL1     -0.3909
     49 C         0.91871   0.385133   -0.362303 C.3        1 UNL1     -0.0577
     50 O         1.278083   2.482265   2.548472 O.3        1 UNL1     -0.3910
     51 O         -1.070984   4.094193   2.456717 O.3        1 UNL1     -0.3753
     52 C         -0.192853   3.125283   -1.063819 C.3        1 UNL1     -0.0564
     53 O         -2.232881   0.754209   -0.100145 O.3        1 UNL1     -0.4608
     54 C         -2.351715   -0.583825   0.170916 C.2        1 UNL1     0.3042
     55 O         -1.712633   -1.507314   -0.331657 O.2        1 UNL1     -0.2512
     56 C         -3.350319   -0.892483   1.249913 C.3        1 UNL1     0.0332
     57 C         -1.640822   1.789613   3.409911 C.3        1 UNL1     -0.0567
     58 C         1.261973   7.286221   -0.828304 C.3        1 UNL1     0.0210
     59 C         -1.46149   5.201737   3.267098 C.3        1 UNL1     0.0372
     60 C         0.271201   5.116414   0.854704 C.2        1 UNL1     -0.0208
     61 C         1.166156   5.578337   1.729019 C.2        1 UNL1     0.0882
     62 H         4.505177   2.985145   0.628287 H        1 UNL1     0.0365
     63 H         6.054214   4.03762   -0.185967 H        1 UNL1     0.0576
     64 H         8.201805   2.148469   -1.333023 H        1 UNL1     0.0615
     65 H         7.875989   5.255162   -1.345917 H        1 UNL1     0.0622
     66 H         -1.806425   5.065953   0.822097 H        1 UNL1     0.0645
     67 H         -2.121304   3.405657   -0.460274 H        1 UNL1     0.0362
     68 H         -2.666506   2.127073   1.237947 H        1 UNL1     0.0741
     69 H         -1.141215   0.207259   2.245018 H        1 UNL1     0.0359
     70 H         0.956334   0.546567   2.941199 H        1 UNL1     0.0600
     71 H         1.897553   -0.416565   1.240848 H        1 UNL1     0.0348
     72 H         3.29708   1.575789   1.303271 H        1 UNL1     0.0602
     73 H         0.347746   5.378176   -0.171391 H        1 UNL1     0.0628
     74 H         1.19149   5.309741   2.785641 H        1 UNL1     0.1022
     75 H         10.671413   3.238657   -3.544914 H        1 UNL1     0.0279
     76 H         10.417755   4.502013   -4.681967 H        1 UNL1     0.0279
     77 H         11.539477   4.69273   -3.274607 H        1 UNL1     0.0279
     78 H         8.561326   5.710017   -4.931468 H        1 UNL1     0.1553
     79 H         7.415875   4.12059   -4.635009 H        1 UNL1     0.1484
     80 H         3.726089   3.217647   -4.733326 H        1 UNL1     0.0317
     81 H         4.322348   4.823679   -5.127105 H        1 UNL1     0.0317
     82 H         6.298137   3.857644   -6.334059 H        1 UNL1     0.0428
     83 H         4.771368   3.289658   -6.972865 H        1 UNL1     0.0428
     84 H         6.826652   0.661217   -4.332744 H        1 UNL1     0.0428
     85 H         7.608146   2.162803   -4.684353 H        1 UNL1     0.0428
     86 H         6.365611   2.012941   -2.525998 H        1 UNL1     0.0317
     87 H         4.874935   1.705071   -3.291147 H        1 UNL1     0.0317
     88 H         7.030471   1.78312   -7.468256 H        1 UNL1     0.0429
     89 H         6.810698   0.225528   -6.667106 H        1 UNL1     0.0429
     90 H         4.18909   0.919533   -7.385229 H        1 UNL1     0.0308
     91 H         6.05605   1.879212   -9.632067 H        1 UNL1     0.0233
     92 H         4.295816   1.642597   -9.777275 H        1 UNL1     0.0233
     93 H         4.934403   2.897167   -8.736667 H        1 UNL1     0.0233
     94 H         4.537395   -0.72095   -9.268377 H        1 UNL1     0.0233
     95 H         6.245954   -0.766758   -8.806796 H        1 UNL1     0.0233
     96 H         4.999213   -1.290368   -7.651176 H        1 UNL1     0.0233
     97 H         3.301426   10.726455   0.396108 H        1 UNL1     0.0280
     98 H         4.849164   11.486644   0.143507 H        1 UNL1     0.0280
     99 H         3.645797   11.463215   -1.17978 H        1 UNL1     0.0280
     100 H         5.756852   11.293462   -2.550981 H        1 UNL1     0.2922
     101 H         4.705795   1.058746   2.383324 H        1 UNL1     0.0236
     102 H         5.930533   2.383329   2.490837 H        1 UNL1     0.0236
     103 H         6.33248   0.83258   1.820677 H        1 UNL1     0.0236
     104 H         4.426978   -0.359841   1.149873 H        1 UNL1     0.2098
     105 H         0.700482   1.283727   -0.933895 H        1 UNL1     0.0234
     106 H         1.28532   -0.401934   -1.021129 H        1 UNL1     0.0234
     107 H         0.0   -0.0   0.0 H        1 UNL1     0.0234
     108 H         1.025086   3.155207   1.887481 H        1 UNL1     0.2098
     109 H         0.847061   3.089216   -0.71028 H        1 UNL1     0.0234
     110 H         -0.365836   2.312093   -1.776941 H        1 UNL1     0.0234
     111 H         -0.267894   4.035084   -1.674211 H        1 UNL1     0.0234
     112 H         -3.38097   -1.971174   1.431112 H        1 UNL1     0.0342
     113 H         -3.141374   -0.347639   2.169331 H        1 UNL1     0.0342
     114 H         -4.343467   -0.581868   0.897293 H        1 UNL1     0.0342
     115 H         -2.688924   1.462259   3.448763 H        1 UNL1     0.0234
     116 H         -1.166968   1.48557   4.345362 H        1 UNL1     0.0234
     117 H         -1.75937   2.886665   3.429042 H        1 UNL1     0.0234
     118 H         0.333825   7.672549   -0.371906 H        1 UNL1     0.0309
     119 H         1.561251   7.9486   -1.646772 H        1 UNL1     0.0309
     120 H         0.94172   6.349676   -1.297801 H        1 UNL1     0.0309
     121 H         -0.685179   5.96175   3.182968 H        1 UNL1     0.0524
     122 H         -2.407922   5.654995   2.928186 H        1 UNL1     0.0524
     123 H         -1.570484   4.890225   4.302074 H        1 UNL1     0.0524
@<TRIPOS>BOND
     1     1     2    1
     2     1    42    1
     3     2     3    2
     4     3     4    1
     5     4     5    2
     6     5     7    1
     7     6    75    1
     8     6    76    1
     9     6    77    1
    10     7     9   am
    11     9    10    1
    12    10    11    2
    13    10    43    1
    14    11    14    1
    15    11    15    1
    16    12    13   ar
    17    12    27   ar
    18    12    43    1
    19    13    14    1
    20    13    30   ar
    21    14    17    2
    22    15    16    1
    23    16    17    1
    24    16    18    1
    25    16    22    1
    26    18    19    1
    27    19    20    1
    28    20    21    1
    29    21    22    1
    30    23    24    1
    31    23    88    1
    32    23    89    1
    33    24    25    1
    34    24    26    1
    35    24    90    1
    36    25    91    1
    37    25    92    1
    38    25    93    1
    39    26    94    1
    40    26    95    1
    41    26    96    1
    42    27    28   ar
    43    28    29   ar
    44    29    30   ar
    45    29    31    1
    46    30    33    1
    47    31    32    1
    48    32    33    1
    49    32    35    1
    50    34    97    1
    51    34    98    1
    52    34    99    1
    53    35    61    1
    54    36    37    1
    55    36    60    1
    56    37    38    1
    57    38    39    1
    58    39    40    1
    59    40    41    1
    60    41    42    1
    61    45   100    1
    62    47   101    1
    63    47   102    1
    64    47   103    1
    65    48   104    1
    66    49   105    1
    67    49   106    1
    68    49   107    1
    69    50   108    1
    70    51    59    1
    71    52   109    1
    72    52   110    1
    73    52   111    1
    74    53    54    1
    75    54    55    2
    76    54    56    1
    77    56   112    1
    78    56   113    1
    79    56   114    1
    80    57   115    1
    81    57   116    1
    82    57   117    1
    83    58   118    1
    84    58   119    1
    85    58   120    1
    86    59   121    1
    87    59   122    1
    88    59   123    1
    89    60    61    2
    90     1    47    1
    91     1    62    1
    92     2    63    1
    93     3    64    1
    94     4    65    1
    95     5     6    1
    96     7     8    2
    97     9    78    1
    98    15    79    1
    99    18    80    1
   100    18    81    1
   101    19    82    1
   102    19    83    1
   103    20    23    1
   104    21    84    1
   105    21    85    1
   106    22    86    1
   107    22    87    1
   108    27    45    1
   109    28    34    1
   110    32    58    1
   111    33    46    2
   112    36    51    1
   113    36    66    1
   114    37    52    1
   115    37    67    1
   116    38    53    1
   117    38    68    1
   118    42    48    1
   119    42    72    1
   120    43    44    2
   121    60    73    1
   122    61    74    1
   123    39    69    1
   124    39    57    1
   125    40    70    1
   126    40    50    1
   127    41    71    1
   128    41    49    1
