@<TRIPOS>MOLECULE
*****
 123 128 0 0 0
SMALL
GASTEIGER

@<TRIPOS>ATOM
     1 C         1.631756   -1.265243   4.421797 C.3        1 UNL1     0.0009
     2 C         3.14744   -1.097201   5.476073 C.2        1 UNL1     -0.0787
     3 C         4.48062   -1.531   5.837316 C.2        1 UNL1     -0.0649
     4 C         5.540459   -0.820193   6.949905 C.2        1 UNL1     -0.0542
     5 C         6.892134   -0.712685   7.360386 C.2        1 UNL1     0.0115
     6 C         8.315245   -1.304609   7.166213 C.3        1 UNL1     -0.0348
     7 C         7.324315   0.517993   8.296143 C.2        1 UNL1     0.2441
     8 O         7.504665   0.406544   9.500958 O.2        1 UNL1     -0.2702
     9 N         7.735002   1.669569   7.602343 N.am        1 UNL1     -0.2772
     10 C         6.653614   2.473408   7.323478 C.2        1 UNL1     0.1049
     11 C         5.953737   2.155609   6.249514 C.2        1 UNL1     0.0801
     12 C         4.640037   3.523765   8.372092 C.ar        1 UNL1     0.0753
     13 C         3.885621   2.975536   7.286316 C.ar        1 UNL1     0.0305
     14 C         4.540188   2.385223   6.12093 C.2        1 UNL1     0.0924
     15 N         6.239246   1.297649   5.255071 N.pl3        1 UNL1     -0.3170
     16 C         5.228888   1.447643   4.241694 C.3        1 UNL1     0.1275
     17 N         4.009251   1.924639   4.991817 N.2        1 UNL1     -0.2557
     18 C         5.655383   2.60678   3.346036 C.3        1 UNL1     0.0016
     19 C         7.047344   2.318119   2.80686 C.3        1 UNL1     0.0026
     20 N         7.010463   1.066881   2.0625 N.3        1 UNL1     -0.3018
     21 C         6.552319   -0.096617   2.824565 C.3        1 UNL1     0.0026
     22 C         5.150639   0.213391   3.352848 C.3        1 UNL1     0.0016
     23 C         8.199297   0.851754   1.261851 C.3        1 UNL1     0.0012
     24 C         9.464275   1.05386   2.110815 C.3        1 UNL1     -0.0339
     25 C         9.297506   2.219195   3.099876 C.3        1 UNL1     -0.0615
     26 C         9.824496   -0.237659   2.824258 C.3        1 UNL1     -0.0615
     27 C         4.013535   4.191994   9.421417 C.ar        1 UNL1     0.1347
     28 C         2.648115   4.408401   9.474755 C.ar        1 UNL1     0.0342
     29 C         1.920697   3.81738   8.4199 C.ar        1 UNL1     0.1435
     30 C         2.531217   3.114042   7.380765 C.ar        1 UNL1     0.0774
     31 O         0.595153   4.031502   8.271268 O.3        1 UNL1     -0.4436
     32 C         0.324897   3.695951   6.901874 C.3        1 UNL1     0.3143
     33 C         1.441964   2.755706   6.496519 C.2        1 UNL1     0.2504
     34 C         1.937524   5.326123   10.430238 C.3        1 UNL1     -0.0327
     35 O         -0.889043   2.93491   6.881375 O.2        1 UNL1     -0.4528
     36 C         -2.521015   3.66888   3.533832 C.3        1 UNL1     0.0854
     37 C         -1.943827   3.471344   2.079405 C.3        1 UNL1     0.0236
     38 C         -2.850932   2.573462   1.108471 C.3        1 UNL1     0.1131
     39 C         -3.356981   1.155998   1.595278 C.3        1 UNL1     0.0200
     40 C         -2.32359   0.118594   2.394236 C.3        1 UNL1     0.0661
     41 C         -0.765314   -0.31839   1.885874 C.3        1 UNL1     0.0091
     42 C         0.730628   -0.738155   2.861249 C.3        1 UNL1     0.0661
     43 C         6.119604   3.435403   8.299055 C.2        1 UNL1     0.2131
     44 O         6.869036   4.170928   8.915571 O.2        1 UNL1     -0.2851
     45 O         4.816191   4.65551   10.46177 O.3        1 UNL1     -0.5056
     46 O         1.42863   1.890558   5.649646 O.2        1 UNL1     -0.2836
     47 C         0.80461   -2.503684   4.860061 C.3        1 UNL1     -0.0566
     48 O         1.043203   -1.95411   2.07203 O.3        1 UNL1     -0.3909
     49 C         -0.326517   0.626983   0.789872 C.3        1 UNL1     -0.0577
     50 O         -2.322413   0.383229   3.782649 O.3        1 UNL1     -0.3910
     51 O         -3.658297   2.900179   3.854952 O.3        1 UNL1     -0.3753
     52 C         -0.382995   3.377797   2.080592 C.3        1 UNL1     -0.0564
     53 O         -2.474985   2.687319   -0.339986 O.3        1 UNL1     -0.4608
     54 C         -2.994623   3.592975   -1.227506 C.2        1 UNL1     0.3042
     55 O         -3.25209   4.778181   -1.020535 O.2        1 UNL1     -0.2512
     56 C         -3.200508   3.033546   -2.606405 C.3        1 UNL1     0.0332
     57 C         -4.8285   1.348022   2.191878 C.3        1 UNL1     -0.0567
     58 C         0.460035   5.00833   6.095073 C.3        1 UNL1     0.0210
     59 C         -3.515759   2.071641   5.007807 C.3        1 UNL1     0.0372
     60 C         -1.539263   3.462907   4.633331 C.2        1 UNL1     -0.0208
     61 C         -1.655876   2.796688   5.782808 C.2        1 UNL1     0.0882
     62 H         1.199085   -0.400739   4.93962 H        1 UNL1     0.0365
     63 H         2.829686   -0.312509   6.165827 H        1 UNL1     0.0576
     64 H         5.003503   -2.305457   5.271703 H        1 UNL1     0.0615
     65 H         4.905402   -0.127623   7.50895 H        1 UNL1     0.0622
     66 H         -2.803413   4.730219   3.576929 H        1 UNL1     0.0645
     67 H         -2.043404   4.467312   1.613903 H        1 UNL1     0.0362
     68 H         -3.751452   3.20469   1.06224 H        1 UNL1     0.0741
     69 H         -3.653235   0.576562   0.731047 H        1 UNL1     0.0359
     70 H         -2.888251   -0.828022   2.293562 H        1 UNL1     0.0600
     71 H         -1.000678   -1.231026   1.303931 H        1 UNL1     0.0348
     72 H         -0.121711   -0.861381   3.545098 H        1 UNL1     0.0602
     73 H         -0.679444   4.058138   4.449865 H        1 UNL1     0.0628
     74 H         -2.476668   2.119975   6.022802 H        1 UNL1     0.1022
     75 H         8.622391   -1.243381   6.094324 H        1 UNL1     0.0279
     76 H         9.128269   -0.789283   7.672672 H        1 UNL1     0.0279
     77 H         8.351826   -2.38995   7.340559 H        1 UNL1     0.0279
     78 H         8.155126   1.402396   6.714541 H        1 UNL1     0.1553
     79 H         7.164497   0.964606   5.055258 H        1 UNL1     0.1484
     80 H         4.926537   2.718208   2.534166 H        1 UNL1     0.0317
     81 H         5.653451   3.551178   3.900797 H        1 UNL1     0.0317
     82 H         7.795578   2.277736   3.61211 H        1 UNL1     0.0428
     83 H         7.332608   3.157836   2.172392 H        1 UNL1     0.0428
     84 H         6.457732   -1.005721   2.222573 H        1 UNL1     0.0428
     85 H         7.263283   -0.373073   3.6154 H        1 UNL1     0.0428
     86 H         4.796204   -0.702455   3.788269 H        1 UNL1     0.0317
     87 H         4.46252   0.378992   2.514895 H        1 UNL1     0.0317
     88 H         8.183791   -0.184274   0.898946 H        1 UNL1     0.0429
     89 H         8.207687   1.502135   0.377709 H        1 UNL1     0.0429
     90 H         10.309511   1.276077   1.448691 H        1 UNL1     0.0308
     91 H         8.261357   2.569232   3.131034 H        1 UNL1     0.0233
     92 H         9.605418   1.920217   4.104571 H        1 UNL1     0.0233
     93 H         9.917619   3.084042   2.834672 H        1 UNL1     0.0233
     94 H         10.854007   -0.526204   2.586174 H        1 UNL1     0.0233
     95 H         9.755177   -0.098414   3.90674 H        1 UNL1     0.0233
     96 H         9.1598   -1.054769   2.530186 H        1 UNL1     0.0233
     97 H         1.22144   4.794286   11.049596 H        1 UNL1     0.0280
     98 H         2.630853   5.816491   11.126003 H        1 UNL1     0.0280
     99 H         1.395876   6.10117   9.863656 H        1 UNL1     0.0280
     100 H         5.668325   4.258557   10.505557 H        1 UNL1     0.2922
     101 H         1.442991   -3.197507   5.406628 H        1 UNL1     0.0236
     102 H         0.287791   -2.988647   4.0326 H        1 UNL1     0.0236
     103 H         0.006189   -2.237371   5.572659 H        1 UNL1     0.0236
     104 H         0.324988   -2.598578   2.226295 H        1 UNL1     0.2098
     105 H         -1.117669   1.264505   0.403277 H        1 UNL1     0.0234
     106 H         0.555555   1.221494   1.027431 H        1 UNL1     0.0234
     107 H         0.0   0.0   0.0 H        1 UNL1     0.0234
     108 H         -3.07337   0.98044   3.964776 H        1 UNL1     0.2098
     109 H         0.076447   4.099339   2.770522 H        1 UNL1     0.0234
     110 H         -0.012319   2.371314   2.302705 H        1 UNL1     0.0234
     111 H         0.036751   3.603765   1.0913 H        1 UNL1     0.0234
     112 H         -4.034854   2.325612   -2.60006 H        1 UNL1     0.0342
     113 H         -3.358046   3.816484   -3.346698 H        1 UNL1     0.0342
     114 H         -2.293736   2.48284   -2.892156 H        1 UNL1     0.0342
     115 H         -5.602438   1.026778   1.481237 H        1 UNL1     0.0234
     116 H         -5.000907   0.814274   3.128595 H        1 UNL1     0.0234
     117 H         -5.106232   2.404923   2.346042 H        1 UNL1     0.0234
     118 H         0.355161   5.901466   6.735631 H        1 UNL1     0.0309
     119 H         1.399989   5.075406   5.538125 H        1 UNL1     0.0309
     120 H         -0.339543   5.131939   5.356492 H        1 UNL1     0.0309
     121 H         -4.509692   1.914628   5.425898 H        1 UNL1     0.0524
     122 H         -3.098711   1.080847   4.761972 H        1 UNL1     0.0524
     123 H         -2.873098   2.553026   5.739483 H        1 UNL1     0.0524
@<TRIPOS>BOND
     1     1     2    1
     2     1    42    1
     3     2     3    2
     4     3     4    1
     5     4     5    2
     6     5     7    1
     7     6    75    1
     8     6    76    1
     9     6    77    1
    10     7     9   am
    11     9    10    1
    12    10    11    2
    13    10    43    1
    14    11    14    1
    15    11    15    1
    16    12    13   ar
    17    12    27   ar
    18    12    43    1
    19    13    14    1
    20    13    30   ar
    21    14    17    2
    22    15    16    1
    23    16    17    1
    24    16    18    1
    25    16    22    1
    26    18    19    1
    27    19    20    1
    28    20    21    1
    29    21    22    1
    30    23    24    1
    31    23    88    1
    32    23    89    1
    33    24    25    1
    34    24    26    1
    35    24    90    1
    36    25    91    1
    37    25    92    1
    38    25    93    1
    39    26    94    1
    40    26    95    1
    41    26    96    1
    42    27    28   ar
    43    28    29   ar
    44    29    30   ar
    45    29    31    1
    46    30    33    1
    47    31    32    1
    48    32    33    1
    49    32    35    1
    50    34    97    1
    51    34    98    1
    52    34    99    1
    53    35    61    1
    54    36    37    1
    55    36    60    1
    56    37    38    1
    57    38    39    1
    58    39    40    1
    59    40    41    1
    60    41    42    1
    61    45   100    1
    62    47   101    1
    63    47   102    1
    64    47   103    1
    65    48   104    1
    66    49   105    1
    67    49   106    1
    68    49   107    1
    69    50   108    1
    70    51    59    1
    71    52   109    1
    72    52   110    1
    73    52   111    1
    74    53    54    1
    75    54    55    2
    76    54    56    1
    77    56   112    1
    78    56   113    1
    79    56   114    1
    80    57   115    1
    81    57   116    1
    82    57   117    1
    83    58   118    1
    84    58   119    1
    85    58   120    1
    86    59   121    1
    87    59   122    1
    88    59   123    1
    89    60    61    2
    90     1    47    1
    91     1    62    1
    92     2    63    1
    93     3    64    1
    94     4    65    1
    95     5     6    1
    96     7     8    2
    97     9    78    1
    98    15    79    1
    99    18    80    1
   100    18    81    1
   101    19    82    1
   102    19    83    1
   103    20    23    1
   104    21    84    1
   105    21    85    1
   106    22    86    1
   107    22    87    1
   108    27    45    1
   109    28    34    1
   110    32    58    1
   111    33    46    2
   112    36    51    1
   113    36    66    1
   114    37    52    1
   115    37    67    1
   116    38    53    1
   117    38    68    1
   118    42    48    1
   119    42    72    1
   120    43    44    2
   121    60    73    1
   122    61    74    1
   123    39    69    1
   124    39    57    1
   125    40    70    1
   126    40    50    1
   127    41    71    1
   128    41    49    1
