@<TRIPOS>MOLECULE
*****
 123 128 0 0 0
SMALL
GASTEIGER

@<TRIPOS>ATOM
     1 C         -1.592115   3.708598   -0.951437 C.3        1 UNL1     0.0009
     2 C         -3.375397   4.212847   -0.899686 C.2        1 UNL1     -0.0787
     3 C         -4.630677   4.461069   -1.576962 C.2        1 UNL1     -0.0649
     4 C         -6.128579   4.84153   -0.885661 C.2        1 UNL1     -0.0542
     5 C         -7.530189   4.86274   -1.090885 C.2        1 UNL1     0.0115
     6 C         -8.646434   4.699125   -2.15885 C.3        1 UNL1     -0.0348
     7 C         -8.500495   4.966076   0.183798 C.2        1 UNL1     0.2441
     8 O         -9.051889   6.005756   0.517797 O.2        1 UNL1     -0.2702
     9 N         -8.881223   3.730599   0.735879 N.am        1 UNL1     -0.2772
     10 C         -7.96188   3.319983   1.673709 C.2        1 UNL1     0.1049
     11 C         -6.889057   2.706831   1.207536 C.2        1 UNL1     0.0801
     12 C         -6.689593   4.103546   3.679861 C.ar        1 UNL1     0.0753
     13 C         -5.51478   3.604258   3.032454 C.ar        1 UNL1     0.0305
     14 C         -5.596579   2.772181   1.834119 C.2        1 UNL1     0.0924
     15 N         -6.634691   2.225633   -0.021396 N.pl3        1 UNL1     -0.3170
     16 C         -5.394997   1.497833   0.039601 C.3        1 UNL1     0.1275
     17 N         -4.630277   2.147888   1.166702 N.2        1 UNL1     -0.2557
     18 C         -5.723247   0.084267   0.510541 C.3        1 UNL1     0.0016
     19 C         -6.756863   -0.51407   -0.430322 C.3        1 UNL1     0.0026
     20 N         -6.209871   -0.525237   -1.780027 N.3        1 UNL1     -0.3018
     21 C         -5.806314   0.783596   -2.298164 C.3        1 UNL1     0.0026
     22 C         -4.764526   1.364216   -1.340327 C.3        1 UNL1     0.0016
     23 C         -6.983671   -1.340095   -2.695386 C.3        1 UNL1     0.0012
     24 C         -8.474876   -0.978603   -2.609429 C.3        1 UNL1     -0.0339
     25 C         -9.366142   -2.211658   -2.831409 C.3        1 UNL1     -0.0615
     26 C         -8.771944   -0.306095   -1.28042 C.3        1 UNL1     -0.0615
     27 C         -6.610336   4.793361   4.887335 C.ar        1 UNL1     0.1347
     28 C         -5.421037   5.009686   5.560255 C.ar        1 UNL1     0.0342
     29 C         -4.272585   4.552091   4.879941 C.ar        1 UNL1     0.1435
     30 C         -4.333337   3.891349   3.652362 C.ar        1 UNL1     0.0774
     31 O         -3.050799   4.590169   5.455088 O.3        1 UNL1     -0.4436
     32 C         -2.268027   3.648007   4.70644 C.3        1 UNL1     0.3143
     33 C         -2.959349   3.537932   3.362502 C.2        1 UNL1     0.2504
     34 C         -5.284698   5.514835   6.96963 C.3        1 UNL1     -0.0327
     35 O         -0.989198   4.249522   4.469737 O.2        1 UNL1     -0.4528
     36 C         1.491844   1.382517   4.28861 C.3        1 UNL1     0.0854
     37 C         1.497446   0.128731   3.331787 C.3        1 UNL1     0.0236
     38 C         2.846074   -0.071005   2.487362 C.3        1 UNL1     0.1131
     39 C         3.439899   1.13846   1.658606 C.3        1 UNL1     0.0200
     40 C         2.436561   2.114214   0.751052 C.3        1 UNL1     0.0661
     41 C         1.270792   1.58088   -0.359869 C.3        1 UNL1     0.0091
     42 C         -0.345265   2.310004   -0.831185 C.3        1 UNL1     0.0661
     43 C         -8.003549   3.784668   3.068229 C.2        1 UNL1     0.2131
     44 O         -9.053403   3.795329   3.685019 O.2        1 UNL1     -0.2851
     45 O         -7.796343   5.285816   5.427996 O.3        1 UNL1     -0.5056
     46 O         -2.479484   3.246032   2.289946 O.2        1 UNL1     -0.2836
     47 C         -0.72453   4.854401   -1.538303 C.3        1 UNL1     -0.0566
     48 O         -0.110923   2.172617   -2.289035 O.3        1 UNL1     -0.3909
     49 C         1.043778   0.099577   -0.155664 C.3        1 UNL1     -0.0577
     50 O         1.908904   3.161819   1.539611 O.3        1 UNL1     -0.3910
     51 O         2.585937   2.26193   4.158135 O.3        1 UNL1     -0.3753
     52 C         0.084821   -0.141154   2.71811 C.3        1 UNL1     -0.0564
     53 O         2.96944   -1.43135   1.865615 O.3        1 UNL1     -0.4608
     54 C         3.50425   -1.696235   0.632025 C.2        1 UNL1     0.3042
     55 O         4.640669   -1.435547   0.239048 O.2        1 UNL1     -0.2512
     56 C         2.570648   -2.438278   -0.28147 C.3        1 UNL1     0.0332
     57 C         4.547099   1.848948   2.56827 C.3        1 UNL1     -0.0567
     58 C         -2.391092   2.293885   5.443148 C.3        1 UNL1     0.0210
     59 C         3.519216   2.221706   5.236671 C.3        1 UNL1     0.0372
     60 C         0.260791   2.216562   4.225056 C.2        1 UNL1     -0.0208
     61 C         0.116028   3.541174   4.16856 C.2        1 UNL1     0.0882
     62 H         -1.550997   3.812266   0.13956 H        1 UNL1     0.0365
     63 H         -3.481466   4.478074   0.154294 H        1 UNL1     0.0576
     64 H         -4.757052   4.254484   -2.642072 H        1 UNL1     0.0615
     65 H         -5.88004   5.105395   0.145885 H        1 UNL1     0.0622
     66 H         1.515381   0.956751   5.301633 H        1 UNL1     0.0645
     67 H         1.539614   -0.733429   4.019872 H        1 UNL1     0.0362
     68 H         3.55643   -0.236534   3.31169 H        1 UNL1     0.0741
     69 H         4.125714   0.749363   0.917883 H        1 UNL1     0.0359
     70 H         3.185678   2.606856   0.102062 H        1 UNL1     0.0600
     71 H         1.874227   1.581945   -1.288752 H        1 UNL1     0.0348
     72 H         0.229958   3.12319   -0.365179 H        1 UNL1     0.0602
     73 H         -0.589446   1.595108   4.359743 H        1 UNL1     0.0628
     74 H         0.928226   4.242538   3.9745 H        1 UNL1     0.1022
     75 H         -9.596968   5.168203   -1.807445 H        1 UNL1     0.0279
     76 H         -8.480488   5.192984   -3.113646 H        1 UNL1     0.0279
     77 H         -8.957436   3.652591   -2.292058 H        1 UNL1     0.0279
     78 H         -8.909489   3.023284   0.004453 H        1 UNL1     0.1553
     79 H         -7.346226   2.031507   -0.701812 H        1 UNL1     0.1484
     80 H         -4.802179   -0.510888   0.524381 H        1 UNL1     0.0317
     81 H         -6.106398   0.092748   1.536589 H        1 UNL1     0.0317
     82 H         -7.70825   0.036755   -0.393343 H        1 UNL1     0.0428
     83 H         -6.977798   -1.521103   -0.075185 H        1 UNL1     0.0428
     84 H         -5.325935   0.737366   -3.280463 H        1 UNL1     0.0428
     85 H         -6.669493   1.445336   -2.454174 H        1 UNL1     0.0428
     86 H         -4.396704   2.253759   -1.817201 H        1 UNL1     0.0317
     87 H         -3.883232   0.712157   -1.305184 H        1 UNL1     0.0317
     88 H         -6.632631   -1.135275   -3.715246 H        1 UNL1     0.0429
     89 H         -6.824205   -2.409984   -2.509157 H        1 UNL1     0.0429
     90 H         -8.709225   -0.235013   -3.380381 H        1 UNL1     0.0308
     91 H         -9.012252   -3.068114   -2.249732 H        1 UNL1     0.0233
     92 H         -10.401107   -1.994685   -2.556859 H        1 UNL1     0.0233
     93 H         -9.388113   -2.527496   -3.881456 H        1 UNL1     0.0233
     94 H         -8.737779   0.783016   -1.392257 H        1 UNL1     0.0233
     95 H         -9.774694   -0.578696   -0.939623 H        1 UNL1     0.0233
     96 H         -8.047498   -0.597761   -0.514864 H        1 UNL1     0.0233
     97 H         -4.747897   4.81503   7.603151 H        1 UNL1     0.0280
     98 H         -4.723018   6.456813   7.019099 H        1 UNL1     0.0280
     99 H         -6.28564   5.675242   7.40262 H        1 UNL1     0.0280
     100 H         -8.490977   5.405275   4.804429 H        1 UNL1     0.2922
     101 H         -0.715869   4.788829   -2.62609 H        1 UNL1     0.0236
     102 H         0.281976   4.886041   -1.122456 H        1 UNL1     0.0236
     103 H         -1.149644   5.848562   -1.321241 H        1 UNL1     0.0236
     104 H         0.830518   2.373975   -2.456708 H        1 UNL1     0.2098
     105 H         1.313336   -0.517895   -1.008822 H        1 UNL1     0.0234
     106 H         1.479588   -0.306317   0.75716 H        1 UNL1     0.0234
     107 H         0.0   0.0   0.0 H        1 UNL1     0.0234
     108 H         1.168468   3.556467   1.039834 H        1 UNL1     0.2098
     109 H         -0.670981   -0.347514   3.488753 H        1 UNL1     0.0234
     110 H         -0.264808   0.669501   2.069772 H        1 UNL1     0.0234
     111 H         0.089781   -1.022559   2.063092 H        1 UNL1     0.0234
     112 H         2.645458   -2.036323   -1.296449 H        1 UNL1     0.0342
     113 H         2.755069   -3.511468   -0.271671 H        1 UNL1     0.0342
     114 H         1.543066   -2.273883   0.070969 H        1 UNL1     0.0342
     115 H         5.368383   2.260335   1.965409 H        1 UNL1     0.0234
     116 H         4.158557   2.658249   3.189651 H        1 UNL1     0.0234
     117 H         5.093585   1.148868   3.223391 H        1 UNL1     0.0234
     118 H         -1.443876   1.997438   5.926787 H        1 UNL1     0.0309
     119 H         -3.192881   2.281476   6.188254 H        1 UNL1     0.0309
     120 H         -2.597816   1.461692   4.761365 H        1 UNL1     0.0309
     121 H         4.00998   1.249135   5.211892 H        1 UNL1     0.0524
     122 H         4.302913   2.991541   5.140708 H        1 UNL1     0.0524
     123 H         3.005095   2.358104   6.183861 H        1 UNL1     0.0524
@<TRIPOS>BOND
     1     1     2    1
     2     1    42    1
     3     2     3    2
     4     3     4    1
     5     4     5    2
     6     5     7    1
     7     6    75    1
     8     6    76    1
     9     6    77    1
    10     7     9   am
    11     9    10    1
    12    10    11    2
    13    10    43    1
    14    11    14    1
    15    11    15    1
    16    12    13   ar
    17    12    27   ar
    18    12    43    1
    19    13    14    1
    20    13    30   ar
    21    14    17    2
    22    15    16    1
    23    16    17    1
    24    16    18    1
    25    16    22    1
    26    18    19    1
    27    19    20    1
    28    20    21    1
    29    21    22    1
    30    23    24    1
    31    23    88    1
    32    23    89    1
    33    24    25    1
    34    24    26    1
    35    24    90    1
    36    25    91    1
    37    25    92    1
    38    25    93    1
    39    26    94    1
    40    26    95    1
    41    26    96    1
    42    27    28   ar
    43    28    29   ar
    44    29    30   ar
    45    29    31    1
    46    30    33    1
    47    31    32    1
    48    32    33    1
    49    32    35    1
    50    34    97    1
    51    34    98    1
    52    34    99    1
    53    35    61    1
    54    36    37    1
    55    36    60    1
    56    37    38    1
    57    38    39    1
    58    39    40    1
    59    40    41    1
    60    41    42    1
    61    45   100    1
    62    47   101    1
    63    47   102    1
    64    47   103    1
    65    48   104    1
    66    49   105    1
    67    49   106    1
    68    49   107    1
    69    50   108    1
    70    51    59    1
    71    52   109    1
    72    52   110    1
    73    52   111    1
    74    53    54    1
    75    54    55    2
    76    54    56    1
    77    56   112    1
    78    56   113    1
    79    56   114    1
    80    57   115    1
    81    57   116    1
    82    57   117    1
    83    58   118    1
    84    58   119    1
    85    58   120    1
    86    59   121    1
    87    59   122    1
    88    59   123    1
    89    60    61    2
    90     1    47    1
    91     1    62    1
    92     2    63    1
    93     3    64    1
    94     4    65    1
    95     5     6    1
    96     7     8    2
    97     9    78    1
    98    15    79    1
    99    18    80    1
   100    18    81    1
   101    19    82    1
   102    19    83    1
   103    20    23    1
   104    21    84    1
   105    21    85    1
   106    22    86    1
   107    22    87    1
   108    27    45    1
   109    28    34    1
   110    32    58    1
   111    33    46    2
   112    36    51    1
   113    36    66    1
   114    37    52    1
   115    37    67    1
   116    38    53    1
   117    38    68    1
   118    42    48    1
   119    42    72    1
   120    43    44    2
   121    60    73    1
   122    61    74    1
   123    39    69    1
   124    39    57    1
   125    40    70    1
   126    40    50    1
   127    41    71    1
   128    41    49    1
