@<TRIPOS>MOLECULE
*****
 123 128 0 0 0
SMALL
GASTEIGER

@<TRIPOS>ATOM
     1 C         5.198422   1.59558   0.655596 C.3        1 UNL1     0.0009
     2 C         6.687959   2.34854   -0.151477 C.2        1 UNL1     -0.0787
     3 C         7.988563   2.204335   -0.770897 C.2        1 UNL1     -0.0649
     4 C         8.929393   3.404127   -1.506896 C.2        1 UNL1     -0.0542
     5 C         9.989957   3.655659   -2.41189 C.2        1 UNL1     0.0115
     6 C         11.127741   2.987051   -3.231483 C.3        1 UNL1     -0.0348
     7 C         10.15199   5.128858   -3.028671 C.2        1 UNL1     0.2441
     8 O         10.987186   5.928944   -2.630128 O.2        1 UNL1     -0.2702
     9 N         9.449641   5.346264   -4.226833 N.am        1 UNL1     -0.2772
     10 C         8.169327   5.775136   -3.96191 C.2        1 UNL1     0.1049
     11 C         7.284366   4.833075   -3.690639 C.2        1 UNL1     0.0801
     12 C         6.872834   7.435364   -2.612805 C.ar        1 UNL1     0.0753
     13 C         6.064277   6.335876   -2.181563 C.ar        1 UNL1     0.0305
     14 C         6.163263   5.0205   -2.810083 C.2        1 UNL1     0.0924
     15 N         7.371417   3.499377   -3.832764 N.pl3        1 UNL1     -0.3170
     16 C         6.073542   2.942524   -3.557651 C.3        1 UNL1     0.1275
     17 N         5.433219   3.926967   -2.609715 N.2        1 UNL1     -0.2557
     18 C         5.26735   3.014259   -4.850946 C.3        1 UNL1     0.0016
     19 C         6.039551   2.295642   -5.945882 C.3        1 UNL1     0.0026
     20 N         6.253513   0.914084   -5.537782 N.3        1 UNL1     -0.3018
     21 C         6.968033   0.74355   -4.270995 C.3        1 UNL1     0.0026
     22 C         6.172456   1.469238   -3.184566 C.3        1 UNL1     0.0016
     23 C         6.710842   0.069749   -6.623412 C.3        1 UNL1     0.0012
     24 C         5.583083   -0.154717   -7.642986 C.3        1 UNL1     -0.0339
     25 C         5.680015   0.834903   -8.815723 C.3        1 UNL1     -0.0615
     26 C         5.595477   -1.595107   -8.124551 C.3        1 UNL1     -0.0615
     27 C         6.688718   8.714315   -2.092703 C.ar        1 UNL1     0.1347
     28 C         5.705642   9.023053   -1.169506 C.ar        1 UNL1     0.0342
     29 C         4.953869   7.915418   -0.723248 C.ar        1 UNL1     0.1435
     30 C         5.151121   6.622051   -1.208544 C.ar        1 UNL1     0.0774
     31 O         3.887843   8.069633   0.092113 O.3        1 UNL1     -0.4436
     32 C         3.133883   6.857951   -0.063597 C.3        1 UNL1     0.3143
     33 C         4.133966   5.82888   -0.550485 C.2        1 UNL1     0.2504
     34 C         5.286083   10.406702   -0.757701 C.3        1 UNL1     -0.0327
     35 O         2.714438   6.446324   1.243263 O.2        1 UNL1     -0.4528
     36 C         -0.570881   4.6098   0.751384 C.3        1 UNL1     0.0854
     37 C         -0.883536   3.349729   -0.144155 C.3        1 UNL1     0.0236
     38 C         -1.549691   2.115939   0.63414 C.3        1 UNL1     0.1131
     39 C         -0.8863   1.576865   1.965147 C.3        1 UNL1     0.0200
     40 C         0.767183   1.381202   2.06589 C.3        1 UNL1     0.0661
     41 C         1.742427   0.571227   0.938748 C.3        1 UNL1     0.0091
     42 C         3.478943   0.875616   0.431537 C.3        1 UNL1     0.0661
     43 C         7.854394   7.187012   -3.697757 C.2        1 UNL1     0.2131
     44 O         8.306493   8.06487   -4.410295 O.2        1 UNL1     -0.2851
     45 O         7.547945   9.7193   -2.532215 O.3        1 UNL1     -0.5056
     46 O         4.108294   4.626862   -0.407845 O.2        1 UNL1     -0.2836
     47 C         5.531151   1.169395   2.110807 C.3        1 UNL1     -0.0566
     48 O         3.880682   -0.547565   0.542344 O.3        1 UNL1     -0.3909
     49 C         0.945049   0.351119   -0.327441 C.3        1 UNL1     -0.0577
     50 O         1.390629   2.584277   2.467947 O.3        1 UNL1     -0.3910
     51 O         -0.749022   4.438664   2.139336 O.3        1 UNL1     -0.3753
     52 C         0.194885   3.145367   -1.257794 C.3        1 UNL1     -0.0564
     53 O         -2.152411   1.086381   -0.276391 O.3        1 UNL1     -0.4608
     54 C         -2.42651   -0.21262   0.063309 C.2        1 UNL1     0.3042
     55 O         -1.870015   -1.227247   -0.354644 O.2        1 UNL1     -0.2512
     56 C         -3.497769   -0.347889   1.107732 C.3        1 UNL1     0.0332
     57 C         -1.629742   2.280775   3.193959 C.3        1 UNL1     -0.0567
     58 C         2.105067   7.124261   -1.18705 C.3        1 UNL1     0.0210
     59 C         -1.082205   5.628941   2.852144 C.3        1 UNL1     0.0372
     60 C         0.784085   5.195621   0.56154 C.2        1 UNL1     -0.0208
     61 C         1.67925   5.611965   1.458246 C.2        1 UNL1     0.0882
     62 H         4.750324   2.594666   0.716809 H        1 UNL1     0.0365
     63 H         6.450827   3.411016   -0.065551 H        1 UNL1     0.0576
     64 H         8.423595   1.22171   -0.966606 H        1 UNL1     0.0615
     65 H         8.459009   4.337548   -1.186044 H        1 UNL1     0.0622
     66 H         -1.280938   5.375367   0.408201 H        1 UNL1     0.0645
     67 H         -1.717378   3.678872   -0.788306 H        1 UNL1     0.0362
     68 H         -2.494489   2.585161   0.94832 H        1 UNL1     0.0741
     69 H         -1.255423   0.578457   2.158378 H        1 UNL1     0.0359
     70 H         0.827871   0.727097   2.95669 H        1 UNL1     0.0600
     71 H         1.739651   -0.446235   1.376607 H        1 UNL1     0.0348
     72 H         3.354197   1.377121   1.402231 H        1 UNL1     0.0602
     73 H         0.943939   5.378247   -0.472066 H        1 UNL1     0.0628
     74 H         1.618069   5.413224   2.528758 H        1 UNL1     0.1022
     75 H         11.132784   1.882605   -3.066538 H        1 UNL1     0.0279
     76 H         11.054246   3.06189   -4.314103 H        1 UNL1     0.0279
     77 H         12.129781   3.264405   -2.872746 H        1 UNL1     0.0279
     78 H         9.379116   4.473124   -4.745226 H        1 UNL1     0.1553
     79 H         8.044219   3.044822   -4.422383 H        1 UNL1     0.1484
     80 H         4.285227   2.554928   -4.685971 H        1 UNL1     0.0317
     81 H         5.082362   4.054522   -5.139533 H        1 UNL1     0.0317
     82 H         6.994203   2.795685   -6.166128 H        1 UNL1     0.0428
     83 H         5.447746   2.360408   -6.859458 H        1 UNL1     0.0428
     84 H         7.04533   -0.299267   -3.947932 H        1 UNL1     0.0428
     85 H         8.011966   1.078898   -4.342138 H        1 UNL1     0.0428
     86 H         6.649063   1.21284   -2.256615 H        1 UNL1     0.0317
     87 H         5.174998   1.023023   -3.089352 H        1 UNL1     0.0317
     88 H         7.541064   0.581439   -7.127594 H        1 UNL1     0.0429
     89 H         7.101624   -0.885016   -6.248597 H        1 UNL1     0.0429
     90 H         4.616066   -0.013412   -7.145869 H        1 UNL1     0.0308
     91 H         6.645379   0.755371   -9.324496 H        1 UNL1     0.0233
     92 H         4.878777   0.658575   -9.537204 H        1 UNL1     0.0233
     93 H         5.575988   1.877593   -8.491979 H        1 UNL1     0.0233
     94 H         4.924976   -1.712208   -8.982777 H        1 UNL1     0.0233
     95 H         6.603637   -1.873635   -8.443921 H        1 UNL1     0.0233
     96 H         5.272238   -2.281875   -7.337256 H        1 UNL1     0.0233
     97 H         4.466369   10.388934   -0.045673 H        1 UNL1     0.0280
     98 H         6.09925   10.956621   -0.266168 H        1 UNL1     0.0280
     99 H         4.960425   10.973155   -1.645492 H        1 UNL1     0.0280
     100 H         7.115772   10.480084   -2.878708 H        1 UNL1     0.2922
     101 H         4.638356   0.767608   2.589493 H        1 UNL1     0.0236
     102 H         5.986165   1.96669   2.69755 H        1 UNL1     0.0236
     103 H         6.261877   0.344082   2.143815 H        1 UNL1     0.0236
     104 H         4.26554   -0.677059   1.431212 H        1 UNL1     0.2098
     105 H         0.780252   1.249915   -0.916355 H        1 UNL1     0.0234
     106 H         1.312533   -0.454674   -0.962721 H        1 UNL1     0.0234
     107 H         0.0   -0.0   0.0 H        1 UNL1     0.0234
     108 H         1.236675   3.240919   1.761628 H        1 UNL1     0.2098
     109 H         1.201912   3.004728   -0.840866 H        1 UNL1     0.0234
     110 H         -0.039207   2.318613   -1.937074 H        1 UNL1     0.0234
     111 H         0.265941   4.020187   -1.917785 H        1 UNL1     0.0234
     112 H         -3.66133   -1.404965   1.33835 H        1 UNL1     0.0342
     113 H         -3.264718   0.217118   2.009008 H        1 UNL1     0.0342
     114 H         -4.43262   0.055234   0.694562 H        1 UNL1     0.0342
     115 H         -2.702833   2.045468   3.2111 H        1 UNL1     0.0234
     116 H         -1.220035   2.016728   4.170928 H        1 UNL1     0.0234
     117 H         -1.654132   3.381704   3.121143 H        1 UNL1     0.0234
     118 H         1.205656   7.642726   -0.811205 H        1 UNL1     0.0309
     119 H         2.521551   7.691751   -2.025321 H        1 UNL1     0.0309
     120 H         1.702944   6.200144   -1.616482 H        1 UNL1     0.0309
     121 H         -0.251846   6.325177   2.737616 H        1 UNL1     0.0524
     122 H         -1.984296   6.119036   2.449559 H        1 UNL1     0.0524
     123 H         -1.241699   5.405415   3.903187 H        1 UNL1     0.0524
@<TRIPOS>BOND
     1     1     2    1
     2     1    42    1
     3     2     3    2
     4     3     4    1
     5     4     5    2
     6     5     7    1
     7     6    75    1
     8     6    76    1
     9     6    77    1
    10     7     9   am
    11     9    10    1
    12    10    11    2
    13    10    43    1
    14    11    14    1
    15    11    15    1
    16    12    13   ar
    17    12    27   ar
    18    12    43    1
    19    13    14    1
    20    13    30   ar
    21    14    17    2
    22    15    16    1
    23    16    17    1
    24    16    18    1
    25    16    22    1
    26    18    19    1
    27    19    20    1
    28    20    21    1
    29    21    22    1
    30    23    24    1
    31    23    88    1
    32    23    89    1
    33    24    25    1
    34    24    26    1
    35    24    90    1
    36    25    91    1
    37    25    92    1
    38    25    93    1
    39    26    94    1
    40    26    95    1
    41    26    96    1
    42    27    28   ar
    43    28    29   ar
    44    29    30   ar
    45    29    31    1
    46    30    33    1
    47    31    32    1
    48    32    33    1
    49    32    35    1
    50    34    97    1
    51    34    98    1
    52    34    99    1
    53    35    61    1
    54    36    37    1
    55    36    60    1
    56    37    38    1
    57    38    39    1
    58    39    40    1
    59    40    41    1
    60    41    42    1
    61    45   100    1
    62    47   101    1
    63    47   102    1
    64    47   103    1
    65    48   104    1
    66    49   105    1
    67    49   106    1
    68    49   107    1
    69    50   108    1
    70    51    59    1
    71    52   109    1
    72    52   110    1
    73    52   111    1
    74    53    54    1
    75    54    55    2
    76    54    56    1
    77    56   112    1
    78    56   113    1
    79    56   114    1
    80    57   115    1
    81    57   116    1
    82    57   117    1
    83    58   118    1
    84    58   119    1
    85    58   120    1
    86    59   121    1
    87    59   122    1
    88    59   123    1
    89    60    61    2
    90     1    47    1
    91     1    62    1
    92     2    63    1
    93     3    64    1
    94     4    65    1
    95     5     6    1
    96     7     8    2
    97     9    78    1
    98    15    79    1
    99    18    80    1
   100    18    81    1
   101    19    82    1
   102    19    83    1
   103    20    23    1
   104    21    84    1
   105    21    85    1
   106    22    86    1
   107    22    87    1
   108    27    45    1
   109    28    34    1
   110    32    58    1
   111    33    46    2
   112    36    51    1
   113    36    66    1
   114    37    52    1
   115    37    67    1
   116    38    53    1
   117    38    68    1
   118    42    48    1
   119    42    72    1
   120    43    44    2
   121    60    73    1
   122    61    74    1
   123    39    69    1
   124    39    57    1
   125    40    70    1
   126    40    50    1
   127    41    71    1
   128    41    49    1
