@<TRIPOS>MOLECULE
*****
 123 128 0 0 0
SMALL
GASTEIGER

@<TRIPOS>ATOM
     1 C         5.167289   1.747746   0.493744 C.3        1 UNL1     0.0009
     2 C         6.604399   2.553953   -0.355833 C.2        1 UNL1     -0.0787
     3 C         7.886488   2.455818   -1.021162 C.2        1 UNL1     -0.0649
     4 C         8.764397   3.691095   -1.775962 C.2        1 UNL1     -0.0542
     5 C         9.784791   3.983942   -2.714107 C.2        1 UNL1     0.0115
     6 C         10.913181   3.358654   -3.579597 C.3        1 UNL1     -0.0348
     7 C         9.88058   5.467422   -3.319995 C.2        1 UNL1     0.2441
     8 O         10.704471   6.288785   -2.941717 O.2        1 UNL1     -0.2702
     9 N         9.130792   5.674974   -4.490845 N.am        1 UNL1     -0.2772
     10 C         7.848034   6.061743   -4.177375 C.2        1 UNL1     0.1049
     11 C         7.001988   5.090355   -3.886112 C.2        1 UNL1     0.0801
     12 C         6.549426   7.668053   -2.766446 C.ar        1 UNL1     0.0753
     13 C         5.79003   6.540087   -2.319659 C.ar        1 UNL1     0.0305
     14 C         5.906966   5.234621   -2.96552 C.2        1 UNL1     0.0924
     15 N         7.124444   3.761419   -4.045682 N.pl3        1 UNL1     -0.3170
     16 C         5.854378   3.162335   -3.732175 C.3        1 UNL1     0.1275
     17 N         5.217802   4.117289   -2.752094 N.2        1 UNL1     -0.2557
     18 C         5.00197   3.222044   -4.996112 C.3        1 UNL1     0.0016
     19 C         5.757123   2.538271   -6.124735 C.3        1 UNL1     0.0026
     20 N         6.026906   1.159973   -5.739326 N.3        1 UNL1     -0.3018
     21 C         6.789814   0.998966   -4.499804 C.3        1 UNL1     0.0026
     22 C         6.010801   1.689173   -3.378801 C.3        1 UNL1     0.0016
     23 C         6.471655   0.340799   -6.849189 C.3        1 UNL1     0.0012
     24 C         5.316503   0.0919   -7.831752 C.3        1 UNL1     -0.0339
     25 C         5.34262   1.095532   -8.996268 C.3        1 UNL1     -0.0615
     26 C         5.35583   -1.342618   -8.329137 C.3        1 UNL1     -0.0615
     27 C         6.344791   8.935568   -2.226402 C.ar        1 UNL1     0.1347
     28 C         5.385452   9.204898   -1.266621 C.ar        1 UNL1     0.0342
     29 C         4.683546   8.070384   -0.806872 C.ar        1 UNL1     0.1435
     30 C         4.902949   6.788519   -1.312741 C.ar        1 UNL1     0.0774
     31 O         3.642285   8.183788   0.046311 O.3        1 UNL1     -0.4436
     32 C         2.920452   6.951144   -0.096575 C.3        1 UNL1     0.3143
     33 C         3.933764   5.958078   -0.62877 C.2        1 UNL1     0.2504
     34 C         4.93869   10.570904   -0.825563 C.3        1 UNL1     -0.0327
     35 O         2.559301   6.513991   1.219373 O.2        1 UNL1     -0.4528
     36 C         -0.683932   4.582495   0.820803 C.3        1 UNL1     0.0854
     37 C         -0.989146   3.32231   -0.077139 C.3        1 UNL1     0.0236
     38 C         -1.590173   2.06106   0.71011 C.3        1 UNL1     0.1131
     39 C         -0.864936   1.529503   2.011551 C.3        1 UNL1     0.0200
     40 C         0.796218   1.383667   2.053216 C.3        1 UNL1     0.0661
     41 C         1.755849   0.615129   0.884427 C.3        1 UNL1     0.0091
     42 C         3.463683   0.97762   0.32113 C.3        1 UNL1     0.0661
     43 C         7.499806   7.460625   -3.887165 C.2        1 UNL1     0.2131
     44 O         7.900077   8.358912   -4.605218 O.2        1 UNL1     -0.2851
     45 O         7.157382   9.970717   -2.684225 O.3        1 UNL1     -0.5056
     46 O         3.94951   4.754491   -0.498449 O.2        1 UNL1     -0.2836
     47 C         5.563104   1.317653   1.931914 C.3        1 UNL1     -0.0566
     48 O         3.911985   -0.433591   0.402525 O.3        1 UNL1     -0.3909
     49 C         0.922033   0.38315   -0.355908 C.3        1 UNL1     -0.0577
     50 O         1.396489   2.60128   2.446683 O.3        1 UNL1     -0.3910
     51 O         -0.808511   4.392312   2.212112 O.3        1 UNL1     -0.3753
     52 C         0.055663   3.162102   -1.229379 C.3        1 UNL1     -0.0564
     53 O         -2.192652   1.022519   -0.190321 O.3        1 UNL1     -0.4608
     54 C         -2.415288   -0.287562   0.144421 C.2        1 UNL1     0.3042
     55 O         -1.843008   -1.280462   -0.303332 O.2        1 UNL1     -0.2512
     56 C         -3.445239   -0.465922   1.223357 C.3        1 UNL1     0.0332
     57 C         -1.586267   2.19814   3.272813 C.3        1 UNL1     -0.0567
     58 C         1.845654   7.196824   -1.181001 C.3        1 UNL1     0.0210
     59 C         -1.152675   5.56473   2.948897 C.3        1 UNL1     0.0372
     60 C         0.645245   5.211443   0.59086 C.2        1 UNL1     -0.0208
     61 C         1.557969   5.646195   1.460728 C.2        1 UNL1     0.0882
     62 H         4.691506   2.731965   0.581227 H        1 UNL1     0.0365
     63 H         6.338295   3.607758   -0.250219 H        1 UNL1     0.0576
     64 H         8.344052   1.488974   -1.242424 H        1 UNL1     0.0615
     65 H         8.277355   4.606443   -1.428959 H        1 UNL1     0.0622
     66 H         -1.428355   5.329265   0.510617 H        1 UNL1     0.0645
     67 H         -1.854442   3.63205   -0.688598 H        1 UNL1     0.0362
     68 H         -2.537283   2.497964   1.061703 H        1 UNL1     0.0741
     69 H         -1.196693   0.518388   2.206467 H        1 UNL1     0.0359
     70 H         0.907596   0.722988   2.934214 H        1 UNL1     0.0600
     71 H         1.79912   -0.406204   1.311001 H        1 UNL1     0.0348
     72 H         3.357567   1.465477   1.300951 H        1 UNL1     0.0602
     73 H         0.76351   5.409059   -0.445581 H        1 UNL1     0.0628
     74 H         1.540041   5.435135   2.530481 H        1 UNL1     0.1022
     75 H         10.957425   2.25331   -3.426977 H        1 UNL1     0.0279
     76 H         10.799911   3.441863   -4.658167 H        1 UNL1     0.0279
     77 H         11.918202   3.663066   -3.252539 H        1 UNL1     0.0279
     78 H         9.068813   4.805231   -5.015995 H        1 UNL1     0.1553
     79 H         7.78984   3.333545   -4.663018 H        1 UNL1     0.1484
     80 H         4.040543   2.731201   -4.802469 H        1 UNL1     0.0317
     81 H         4.775625   4.258936   -5.266803 H        1 UNL1     0.0317
     82 H         6.687956   3.069507   -6.372224 H        1 UNL1     0.0428
     83 H         5.132267   2.593851   -7.016652 H        1 UNL1     0.0428
     84 H         6.909858   -0.044121   -4.190982 H        1 UNL1     0.0428
     85 H         7.820003   1.366862   -4.603154 H        1 UNL1     0.0428
     86 H         6.52689   1.438386   -2.470645 H        1 UNL1     0.0317
     87 H         5.031235   1.211657   -3.254203 H        1 UNL1     0.0317
     88 H         7.26798   0.882655   -7.376022 H        1 UNL1     0.0429
     89 H         6.903977   -0.605177   -6.498472 H        1 UNL1     0.0429
     90 H         4.363489   0.198574   -7.300153 H        1 UNL1     0.0308
     91 H         6.292892   1.052842   -9.536881 H        1 UNL1     0.0233
     92 H         4.524377   0.899887   -9.69327 H        1 UNL1     0.0233
     93 H         5.21525   2.131027   -8.658092 H        1 UNL1     0.0233
     94 H         4.659797   -1.471771   -9.165016 H        1 UNL1     0.0233
     95 H         6.360275   -1.586932   -8.686016 H        1 UNL1     0.0233
     96 H         5.081086   -2.046699   -7.538724 H        1 UNL1     0.0233
     97 H         4.145105   10.520988   -0.085995 H        1 UNL1     0.0280
     98 H         5.751387   11.140638   -0.356327 H        1 UNL1     0.0280
     99 H         4.565386   11.135819   -1.695397 H        1 UNL1     0.0280
     100 H         6.690577   10.721263   -3.00733 H        1 UNL1     0.2922
     101 H         4.700055   0.883974   2.436619 H        1 UNL1     0.0236
     102 H         6.013834   2.122711   2.511317 H        1 UNL1     0.0236
     103 H         6.319218   0.514857   1.930764 H        1 UNL1     0.0236
     104 H         4.331218   -0.559969   1.276163 H        1 UNL1     0.2098
     105 H         0.70972   1.282226   -0.928968 H        1 UNL1     0.0234
     106 H         1.291499   -0.404695   -1.012203 H        1 UNL1     0.0234
     107 H         0.0   -0.0   0.0 H        1 UNL1     0.0234
     108 H         1.198272   3.259817   1.753281 H        1 UNL1     0.2098
     109 H         1.080357   3.048317   -0.848898 H        1 UNL1     0.0234
     110 H         -0.1767   2.335288   -1.90918 H        1 UNL1     0.0234
     111 H         0.077211   4.045149   -1.881844 H        1 UNL1     0.0234
     112 H         -3.570829   -1.529933   1.445741 H        1 UNL1     0.0342
     113 H         -3.1969   0.094665   2.123308 H        1 UNL1     0.0342
     114 H         -4.404909   -0.084763   0.84797 H        1 UNL1     0.0342
     115 H         -2.65049   1.929871   3.324291 H        1 UNL1     0.0234
     116 H         -1.135075   1.937173   4.232172 H        1 UNL1     0.0234
     117 H         -1.646533   3.298466   3.212889 H        1 UNL1     0.0234
     118 H         0.944529   7.683731   -0.768808 H        1 UNL1     0.0309
     119 H         2.215391   7.785052   -2.026865 H        1 UNL1     0.0309
     120 H         1.457064   6.265083   -1.606399 H        1 UNL1     0.0309
     121 H         -0.348281   6.287202   2.813472 H        1 UNL1     0.0524
     122 H         -2.082641   6.030866   2.58295 H        1 UNL1     0.0524
     123 H         -1.268736   5.326074   4.002305 H        1 UNL1     0.0524
@<TRIPOS>BOND
     1     1     2    1
     2     1    42    1
     3     2     3    2
     4     3     4    1
     5     4     5    2
     6     5     7    1
     7     6    75    1
     8     6    76    1
     9     6    77    1
    10     7     9   am
    11     9    10    1
    12    10    11    2
    13    10    43    1
    14    11    14    1
    15    11    15    1
    16    12    13   ar
    17    12    27   ar
    18    12    43    1
    19    13    14    1
    20    13    30   ar
    21    14    17    2
    22    15    16    1
    23    16    17    1
    24    16    18    1
    25    16    22    1
    26    18    19    1
    27    19    20    1
    28    20    21    1
    29    21    22    1
    30    23    24    1
    31    23    88    1
    32    23    89    1
    33    24    25    1
    34    24    26    1
    35    24    90    1
    36    25    91    1
    37    25    92    1
    38    25    93    1
    39    26    94    1
    40    26    95    1
    41    26    96    1
    42    27    28   ar
    43    28    29   ar
    44    29    30   ar
    45    29    31    1
    46    30    33    1
    47    31    32    1
    48    32    33    1
    49    32    35    1
    50    34    97    1
    51    34    98    1
    52    34    99    1
    53    35    61    1
    54    36    37    1
    55    36    60    1
    56    37    38    1
    57    38    39    1
    58    39    40    1
    59    40    41    1
    60    41    42    1
    61    45   100    1
    62    47   101    1
    63    47   102    1
    64    47   103    1
    65    48   104    1
    66    49   105    1
    67    49   106    1
    68    49   107    1
    69    50   108    1
    70    51    59    1
    71    52   109    1
    72    52   110    1
    73    52   111    1
    74    53    54    1
    75    54    55    2
    76    54    56    1
    77    56   112    1
    78    56   113    1
    79    56   114    1
    80    57   115    1
    81    57   116    1
    82    57   117    1
    83    58   118    1
    84    58   119    1
    85    58   120    1
    86    59   121    1
    87    59   122    1
    88    59   123    1
    89    60    61    2
    90     1    47    1
    91     1    62    1
    92     2    63    1
    93     3    64    1
    94     4    65    1
    95     5     6    1
    96     7     8    2
    97     9    78    1
    98    15    79    1
    99    18    80    1
   100    18    81    1
   101    19    82    1
   102    19    83    1
   103    20    23    1
   104    21    84    1
   105    21    85    1
   106    22    86    1
   107    22    87    1
   108    27    45    1
   109    28    34    1
   110    32    58    1
   111    33    46    2
   112    36    51    1
   113    36    66    1
   114    37    52    1
   115    37    67    1
   116    38    53    1
   117    38    68    1
   118    42    48    1
   119    42    72    1
   120    43    44    2
   121    60    73    1
   122    61    74    1
   123    39    69    1
   124    39    57    1
   125    40    70    1
   126    40    50    1
   127    41    71    1
   128    41    49    1
