@<TRIPOS>MOLECULE
*****
 123 128 0 0 0
SMALL
GASTEIGER

@<TRIPOS>ATOM
     1 C         4.995132   1.860912   1.067429 C.3        1 UNL1     0.0009
     2 C         6.567251   1.501002   1.981729 C.2        1 UNL1     -0.0787
     3 C         7.482303   1.785158   3.067077 C.2        1 UNL1     -0.0649
     4 C         8.875636   0.928704   3.50465 C.2        1 UNL1     -0.0542
     5 C         9.800872   0.670877   4.546063 C.2        1 UNL1     0.0115
     6 C         10.262239   1.125342   5.958127 C.3        1 UNL1     -0.0348
     7 C         10.732712   -0.632908   4.452213 C.2        1 UNL1     0.2441
     8 O         11.9082   -0.587903   4.116464 O.2        1 UNL1     -0.2702
     9 N         10.184964   -1.791206   5.030546 N.am        1 UNL1     -0.2772
     10 C         9.420387   -2.47162   4.110882 C.2        1 UNL1     0.1049
     11 C         8.181034   -2.043297   3.953513 C.2        1 UNL1     0.0801
     12 C         9.452369   -3.356983   1.771557 C.ar        1 UNL1     0.0753
     13 C         8.197582   -2.693657   1.586849 C.ar        1 UNL1     0.0305
     14 C         7.45933   -2.125678   2.712653 C.2        1 UNL1     0.0924
     15 N         7.465192   -1.17924   4.693447 N.pl3        1 UNL1     -0.3170
     16 C         6.115345   -1.187491   4.195353 C.3        1 UNL1     0.1275
     17 N         6.2513   -1.570032   2.741771 N.2        1 UNL1     -0.2557
     18 C         5.390639   -2.346867   4.87237 C.3        1 UNL1     0.0016
     19 C         5.5028   -2.177115   6.379087 C.3        1 UNL1     0.0026
     20 N         4.910257   -0.899864   6.751309 N.3        1 UNL1     -0.3018
     21 C         5.501082   0.272304   6.10222 C.3        1 UNL1     0.0026
     22 C         5.373349   0.08273   4.589726 C.3        1 UNL1     0.0016
     23 C         4.695337   -0.772607   8.178985 C.3        1 UNL1     0.0012
     24 C         3.562423   -1.703919   8.638247 C.3        1 UNL1     -0.0339
     25 C         2.756112   -1.082749   9.790665 C.3        1 UNL1     -0.0615
     26 C         2.6714   -2.059957   7.460922 C.3        1 UNL1     -0.0615
     27 C         10.091037   -4.000616   0.714222 C.ar        1 UNL1     0.1347
     28 C         9.555227   -4.081884   -0.558709 C.ar        1 UNL1     0.0342
     29 C         8.343009   -3.379929   -0.728863 C.ar        1 UNL1     0.1435
     30 C         7.709669   -2.700202   0.312324 C.ar        1 UNL1     0.0774
     31 O         7.640907   -3.454878   -1.880576 O.3        1 UNL1     -0.4436
     32 C         6.313697   -3.03997   -1.523874 C.3        1 UNL1     0.3143
     33 C         6.483627   -2.200324   -0.273941 C.2        1 UNL1     0.2504
     34 C         10.054496   -4.961469   -1.670987 C.3        1 UNL1     -0.0327
     35 O         5.849971   -2.161583   -2.55666 O.2        1 UNL1     -0.4528
     36 C         2.081034   -2.595847   -2.677552 C.3        1 UNL1     0.0854
     37 C         1.018119   -2.399196   -1.529047 C.3        1 UNL1     0.0236
     38 C         -0.168821   -1.377583   -1.874339 C.3        1 UNL1     0.1131
     39 C         0.172406   0.062786   -2.432165 C.3        1 UNL1     0.0200
     40 C         1.406559   0.95955   -1.75754 C.3        1 UNL1     0.0661
     41 C         1.627289   1.258979   -0.102478 C.3        1 UNL1     0.0091
     42 C         3.165441   1.488586   0.870543 C.3        1 UNL1     0.0661
     43 C         10.007788   -3.413611   3.146534 C.2        1 UNL1     0.2131
     44 O         10.820655   -4.244024   3.510401 O.2        1 UNL1     -0.2851
     45 O         11.331293   -4.582719   0.967911 O.3        1 UNL1     -0.5056
     46 O         5.777918   -1.30521   0.134226 O.2        1 UNL1     -0.2836
     47 C         5.145025   3.157203   0.226511 C.3        1 UNL1     -0.0566
     48 O         2.674691   2.69773   1.574995 O.3        1 UNL1     -0.3909
     49 C         0.742764   0.318864   0.685745 C.3        1 UNL1     -0.0577
     50 O         2.644726   0.641197   -2.360297 O.3        1 UNL1     -0.3910
     51 O         1.959353   -1.731043   -3.784231 O.3        1 UNL1     -0.3753
     52 C         1.674972   -2.46171   -0.111449 C.3        1 UNL1     -0.0564
     53 O         -1.334169   -1.470721   -0.933269 O.3        1 UNL1     -0.4608
     54 C         -1.4605   -2.37475   0.088838 C.2        1 UNL1     0.3042
     55 O         -2.149926   -3.393725   0.103719 O.2        1 UNL1     -0.2512
     56 C         -0.594735   -2.064421   1.276635 C.3        1 UNL1     0.0332
     57 C         0.086751   -0.00524   -4.02785 C.3        1 UNL1     -0.0567
     58 C         5.536541   -4.326209   -1.158981 C.3        1 UNL1     0.0210
     59 C         1.043284   -2.166845   -4.787605 C.3        1 UNL1     0.0372
     60 C         3.501402   -2.532509   -2.237435 C.2        1 UNL1     -0.0208
     61 C         4.546528   -1.904155   -2.777461 C.2        1 UNL1     0.0882
     62 H         5.217377   1.023931   0.394539 H        1 UNL1     0.0365
     63 H         6.999268   0.7251   1.346271 H        1 UNL1     0.0576
     64 H         7.247222   2.525523   3.835 H        1 UNL1     0.0615
     65 H         9.064531   0.281189   2.644112 H        1 UNL1     0.0622
     66 H         1.920169   -3.624648   -3.029316 H        1 UNL1     0.0645
     67 H         0.477373   -3.361019   -1.496656 H        1 UNL1     0.0362
     68 H         -0.63399   -1.913635   -2.715641 H        1 UNL1     0.0741
     69 H         -0.688816   0.702705   -2.293567 H        1 UNL1     0.0359
     70 H         1.154378   1.960952   -2.155862 H        1 UNL1     0.0600
     71 H         1.073123   2.212903   -0.003043 H        1 UNL1     0.0348
     72 H         3.440647   1.668851   -0.178781 H        1 UNL1     0.0602
     73 H         3.646053   -3.20267   -1.426751 H        1 UNL1     0.0628
     74 H         4.475662   -1.159113   -3.570637 H        1 UNL1     0.1022
     75 H         10.37713   2.235525   5.99456 H        1 UNL1     0.0279
     76 H         9.573939   0.934021   6.778314 H        1 UNL1     0.0279
     77 H         11.282828   0.79374   6.199249 H        1 UNL1     0.0279
     78 H         9.575724   -1.532172   5.803725 H        1 UNL1     0.1553
     79 H         7.694451   -0.932348   5.638655 H        1 UNL1     0.1484
     80 H         4.343375   -2.352816   4.546843 H        1 UNL1     0.0317
     81 H         5.819107   -3.307653   4.567484 H        1 UNL1     0.0317
     82 H         6.546592   -2.243469   6.719688 H        1 UNL1     0.0428
     83 H         4.980981   -3.015214   6.84206 H        1 UNL1     0.0428
     84 H         4.986962   1.20949   6.337113 H        1 UNL1     0.0428
     85 H         6.534695   0.444947   6.432607 H        1 UNL1     0.0428
     86 H         5.691964   1.011312   4.153596 H        1 UNL1     0.0317
     87 H         4.315153   0.019898   4.308001 H        1 UNL1     0.0317
     88 H         5.620204   -1.068335   8.691293 H        1 UNL1     0.0429
     89 H         4.490681   0.268455   8.460197 H        1 UNL1     0.0429
     90 H         3.993787   -2.650632   8.984476 H        1 UNL1     0.0308
     91 H         2.507982   -0.037327   9.584203 H        1 UNL1     0.0233
     92 H         1.834074   -1.642926   9.962877 H        1 UNL1     0.0233
     93 H         3.304978   -1.09792   10.740059 H        1 UNL1     0.0233
     94 H         1.685192   -2.377805   7.816173 H        1 UNL1     0.0233
     95 H         2.532799   -1.185276   6.819295 H        1 UNL1     0.0233
     96 H         3.101753   -2.869959   6.865388 H        1 UNL1     0.0233
     97 H         9.28954   -5.647294   -2.022722 H        1 UNL1     0.0280
     98 H         10.36502   -4.381285   -2.549746 H        1 UNL1     0.0280
     99 H         10.913141   -5.554327   -1.315539 H        1 UNL1     0.0280
     100 H         11.942932   -4.022783   1.412873 H        1 UNL1     0.2922
     101 H         5.26431   2.900948   -0.825991 H        1 UNL1     0.0236
     102 H         5.942685   3.808757   0.581756 H        1 UNL1     0.0236
     103 H         4.236194   3.780902   0.26143 H        1 UNL1     0.0236
     104 H         2.244819   3.271754   0.91116 H        1 UNL1     0.2098
     105 H         1.250293   -0.565928   1.061735 H        1 UNL1     0.0234
     106 H         0.170132   0.793185   1.482638 H        1 UNL1     0.0234
     107 H         -0.0   0.0   0.0 H        1 UNL1     0.0234
     108 H         2.819762   -0.302972   -2.182323 H        1 UNL1     0.2098
     109 H         1.067376   -1.954942   0.65126 H        1 UNL1     0.0234
     110 H         1.896261   -3.483352   0.215695 H        1 UNL1     0.0234
     111 H         2.651506   -1.959645   -0.095375 H        1 UNL1     0.0234
     112 H         -0.727095   -2.832671   2.044502 H        1 UNL1     0.0342
     113 H         0.454346   -1.961998   1.003174 H        1 UNL1     0.0342
     114 H         -0.923629   -1.105243   1.699683 H        1 UNL1     0.0342
     115 H         -0.120319   0.979898   -4.468093 H        1 UNL1     0.0234
     116 H         0.98832   -0.395009   -4.504612 H        1 UNL1     0.0234
     117 H         -0.773659   -0.589046   -4.397722 H        1 UNL1     0.0234
     118 H         4.762819   -4.569692   -1.908032 H        1 UNL1     0.0309
     119 H         6.186459   -5.195926   -1.019695 H        1 UNL1     0.0309
     120 H         4.965108   -4.222815   -0.230067 H        1 UNL1     0.0309
     121 H         1.354592   -1.723675   -5.733144 H        1 UNL1     0.0524
     122 H         1.052599   -3.262125   -4.915324 H        1 UNL1     0.0524
     123 H         0.034557   -1.849433   -4.538983 H        1 UNL1     0.0524
@<TRIPOS>BOND
     1     1     2    1
     2     1    42    1
     3     2     3    2
     4     3     4    1
     5     4     5    2
     6     5     7    1
     7     6    75    1
     8     6    76    1
     9     6    77    1
    10     7     9   am
    11     9    10    1
    12    10    11    2
    13    10    43    1
    14    11    14    1
    15    11    15    1
    16    12    13   ar
    17    12    27   ar
    18    12    43    1
    19    13    14    1
    20    13    30   ar
    21    14    17    2
    22    15    16    1
    23    16    17    1
    24    16    18    1
    25    16    22    1
    26    18    19    1
    27    19    20    1
    28    20    21    1
    29    21    22    1
    30    23    24    1
    31    23    88    1
    32    23    89    1
    33    24    25    1
    34    24    26    1
    35    24    90    1
    36    25    91    1
    37    25    92    1
    38    25    93    1
    39    26    94    1
    40    26    95    1
    41    26    96    1
    42    27    28   ar
    43    28    29   ar
    44    29    30   ar
    45    29    31    1
    46    30    33    1
    47    31    32    1
    48    32    33    1
    49    32    35    1
    50    34    97    1
    51    34    98    1
    52    34    99    1
    53    35    61    1
    54    36    37    1
    55    36    60    1
    56    37    38    1
    57    38    39    1
    58    39    40    1
    59    40    41    1
    60    41    42    1
    61    45   100    1
    62    47   101    1
    63    47   102    1
    64    47   103    1
    65    48   104    1
    66    49   105    1
    67    49   106    1
    68    49   107    1
    69    50   108    1
    70    51    59    1
    71    52   109    1
    72    52   110    1
    73    52   111    1
    74    53    54    1
    75    54    55    2
    76    54    56    1
    77    56   112    1
    78    56   113    1
    79    56   114    1
    80    57   115    1
    81    57   116    1
    82    57   117    1
    83    58   118    1
    84    58   119    1
    85    58   120    1
    86    59   121    1
    87    59   122    1
    88    59   123    1
    89    60    61    2
    90     1    47    1
    91     1    62    1
    92     2    63    1
    93     3    64    1
    94     4    65    1
    95     5     6    1
    96     7     8    2
    97     9    78    1
    98    15    79    1
    99    18    80    1
   100    18    81    1
   101    19    82    1
   102    19    83    1
   103    20    23    1
   104    21    84    1
   105    21    85    1
   106    22    86    1
   107    22    87    1
   108    27    45    1
   109    28    34    1
   110    32    58    1
   111    33    46    2
   112    36    51    1
   113    36    66    1
   114    37    52    1
   115    37    67    1
   116    38    53    1
   117    38    68    1
   118    42    48    1
   119    42    72    1
   120    43    44    2
   121    60    73    1
   122    61    74    1
   123    39    69    1
   124    39    57    1
   125    40    70    1
   126    40    50    1
   127    41    71    1
   128    41    49    1
