@<TRIPOS>MOLECULE
*****
 123 128 0 0 0
SMALL
GASTEIGER

@<TRIPOS>ATOM
     1 C         0.008774   4.034745   -1.288994 C.3        1 UNL1     0.0009
     2 C         -1.302529   4.914273   -2.260566 C.2        1 UNL1     -0.0787
     3 C         -1.77752   5.476493   -3.507297 C.2        1 UNL1     -0.0649
     4 C         -3.303345   6.130682   -3.839343 C.2        1 UNL1     -0.0542
     5 C         -4.222328   6.473055   -4.861756 C.2        1 UNL1     0.0115
     6 C         -4.392068   6.629579   -6.397989 C.3        1 UNL1     -0.0348
     7 C         -5.763497   6.703094   -4.475923 C.2        1 UNL1     0.2441
     8 O         -6.26304   7.814279   -4.36524 O.2        1 UNL1     -0.2702
     9 N         -6.562863   5.547987   -4.529719 N.am        1 UNL1     -0.2772
     10 C         -6.529573   4.884431   -3.324768 C.2        1 UNL1     0.1049
     11 C         -5.498471   4.082422   -3.130264 C.2        1 UNL1     0.0801
     12 C         -6.770888   5.235227   -0.859805 C.ar        1 UNL1     0.0753
     13 C         -5.531495   4.533543   -0.717851 C.ar        1 UNL1     0.0305
     14 C         -4.923135   3.820558   -1.838834 C.2        1 UNL1     0.0924
     15 N         -4.573153   3.639036   -3.998438 N.pl3        1 UNL1     -0.3170
     16 C         -3.771896   2.654042   -3.321662 C.3        1 UNL1     0.1275
     17 N         -3.843433   3.044377   -1.865556 N.2        1 UNL1     -0.2557
     18 C         -4.501792   1.319402   -3.43867 C.3        1 UNL1     0.0016
     19 C         -4.746439   1.026275   -4.910341 C.3        1 UNL1     0.0026
     20 N         -3.463563   0.983971   -5.59843 N.3        1 UNL1     -0.3018
     21 C         -2.659715   2.20322   -5.490597 C.3        1 UNL1     0.0026
     22 C         -2.422134   2.47619   -4.004347 C.3        1 UNL1     0.0016
     23 C         -3.556584   0.421291   -6.930864 C.3        1 UNL1     0.0012
     24 C         -3.965872   1.501586   -7.944374 C.3        1 UNL1     -0.0339
     25 C         -4.847946   0.919613   -9.061205 C.3        1 UNL1     -0.0615
     26 C         -4.654498   2.651583   -7.230175 C.3        1 UNL1     -0.0615
     27 C         -7.405027   5.809706   0.239268 C.ar        1 UNL1     0.1347
     28 C         -6.918217   5.714425   1.530774 C.ar        1 UNL1     0.0342
     29 C         -5.672109   5.061284   1.639342 C.ar        1 UNL1     0.1435
     30 C         -5.00738   4.512356   0.542057 C.ar        1 UNL1     0.0774
     31 O         -5.120132   4.791808   2.842551 O.3        1 UNL1     -0.4436
     32 C         -4.166087   3.751952   2.579167 C.3        1 UNL1     0.3143
     33 C         -3.830955   3.885312   1.107395 C.2        1 UNL1     0.2504
     34 C         -7.663286   6.083325   2.783325 C.3        1 UNL1     -0.0327
     35 O         -2.975084   4.071768   3.308881 O.2        1 UNL1     -0.4528
     36 C         -1.353462   0.747651   4.162509 C.3        1 UNL1     0.0854
     37 C         -0.888762   -0.410901   3.198489 C.3        1 UNL1     0.0236
     38 C         0.646602   -0.846284   3.35611 C.3        1 UNL1     0.1131
     39 C         1.781904   0.254857   3.327018 C.3        1 UNL1     0.0200
     40 C         1.737184   1.484939   2.201257 C.3        1 UNL1     0.0661
     41 C         1.511299   1.295334   0.530737 C.3        1 UNL1     0.0091
     42 C         0.692426   2.391394   -0.691352 C.3        1 UNL1     0.0661
     43 C         -7.404051   5.254071   -2.201822 C.2        1 UNL1     0.2131
     44 O         -8.591323   5.454711   -2.383114 O.2        1 UNL1     -0.2851
     45 O         -8.584675   6.514227   0.007932 O.3        1 UNL1     -0.5056
     46 O         -2.813233   3.566288   0.534403 O.2        1 UNL1     -0.2836
     47 C         1.185557   4.997801   -0.976443 C.3        1 UNL1     -0.0566
     48 O         1.794111   2.302112   -1.680006 O.3        1 UNL1     -0.3909
     49 C         1.021496   -0.109936   0.26092 C.3        1 UNL1     -0.0577
     50 O         0.96255   2.568694   2.673635 O.3        1 UNL1     -0.3910
     51 O         -0.335044   1.371576   4.911491 O.3        1 UNL1     -0.3753
     52 C         -1.588643   -0.32254   1.803029 C.3        1 UNL1     -0.0564
     53 O         0.969757   -2.156504   2.699436 O.3        1 UNL1     -0.4608
     54 C         1.585064   -3.219822   3.306628 C.2        1 UNL1     0.3042
     55 O         1.169321   -4.374758   3.391004 O.2        1 UNL1     -0.2512
     56 C         2.940245   -2.891512   3.865564 C.3        1 UNL1     0.0332
     57 C         2.116236   0.643014   4.842185 C.3        1 UNL1     -0.0567
     58 C         -4.905991   2.412553   2.802958 C.3        1 UNL1     0.0210
     59 C         -0.336033   1.056869   6.30319 C.3        1 UNL1     0.0372
     60 C         -2.133154   1.834322   3.509526 C.2        1 UNL1     -0.0208
     61 C         -2.038321   3.159117   3.630644 C.2        1 UNL1     0.0882
     62 H         -0.652719   4.054783   -0.414501 H        1 UNL1     0.0365
     63 H         -2.030415   5.126361   -1.474645 H        1 UNL1     0.0576
     64 H         -1.209893   5.373331   -4.434801 H        1 UNL1     0.0615
     65 H         -3.750138   6.26494   -2.850489 H        1 UNL1     0.0622
     66 H         -2.044585   0.261391   4.865321 H        1 UNL1     0.0645
     67 H         -1.410828   -1.304609   3.582276 H        1 UNL1     0.0362
     68 H         0.627014   -1.217868   4.391998 H        1 UNL1     0.0741
     69 H         2.727699   -0.225901   3.115475 H        1 UNL1     0.0359
     70 H         2.782575   1.842415   2.267791 H        1 UNL1     0.0600
     71 H         2.566048   1.224821   0.199844 H        1 UNL1     0.0348
     72 H         0.926436   3.025695   0.175952 H        1 UNL1     0.0602
     73 H         -2.938292   1.407567   2.964658 H        1 UNL1     0.0628
     74 H         -1.213317   3.675923   4.122088 H        1 UNL1     0.1022
     75 H         -3.658104   5.986578   -6.941019 H        1 UNL1     0.0279
     76 H         -5.342195   6.305424   -6.816619 H        1 UNL1     0.0279
     77 H         -4.11085   7.630396   -6.757132 H        1 UNL1     0.0279
     78 H         -6.200419   4.913924   -5.238716 H        1 UNL1     0.1553
     79 H         -4.692913   3.651355   -4.99465 H        1 UNL1     0.1484
     80 H         -3.892986   0.536682   -2.970194 H        1 UNL1     0.0317
     81 H         -5.452459   1.344369   -2.895292 H        1 UNL1     0.0317
     82 H         -5.416512   1.769171   -5.367529 H        1 UNL1     0.0428
     83 H         -5.269407   0.071338   -4.970757 H        1 UNL1     0.0428
     84 H         -1.668963   2.117252   -5.947578 H        1 UNL1     0.0428
     85 H         -3.124633   3.047377   -6.018391 H        1 UNL1     0.0428
     86 H         -1.724776   3.292486   -3.96774 H        1 UNL1     0.0317
     87 H         -1.864205   1.645428   -3.555295 H        1 UNL1     0.0317
     88 H         -2.566346   0.037817   -7.20956 H        1 UNL1     0.0429
     89 H         -4.249889   -0.429248   -6.957036 H        1 UNL1     0.0429
     90 H         -3.063711   1.928276   -8.398527 H        1 UNL1     0.0308
     91 H         -5.633129   0.276049   -8.653264 H        1 UNL1     0.0233
     92 H         -5.307782   1.719314   -9.646557 H        1 UNL1     0.0233
     93 H         -4.275115   0.311276   -9.771575 H        1 UNL1     0.0233
     94 H         -5.276839   3.214822   -7.933942 H        1 UNL1     0.0233
     95 H         -5.304373   2.265184   -6.440035 H        1 UNL1     0.0233
     96 H         -3.928002   3.337609   -6.78572 H        1 UNL1     0.0233
     97 H         -8.505173   6.738008   2.578762 H        1 UNL1     0.0280
     98 H         -8.082456   5.204017   3.289655 H        1 UNL1     0.0280
     99 H         -6.982857   6.602255   3.47818 H        1 UNL1     0.0280
     100 H         -8.622562   7.360027   0.418797 H        1 UNL1     0.2922
     101 H         1.184615   5.247326   0.084402 H        1 UNL1     0.0236
     102 H         1.190364   5.887132   -1.605768 H        1 UNL1     0.0236
     103 H         2.165977   4.524238   -1.15168 H        1 UNL1     0.0236
     104 H         1.686467   3.042046   -2.309196 H        1 UNL1     0.2098
     105 H         1.523529   -0.609978   -0.563539 H        1 UNL1     0.0234
     106 H         0.994724   -0.758772   1.136262 H        1 UNL1     0.0234
     107 H         -0.0   0.0   0.0 H        1 UNL1     0.0234
     108 H         0.718449   3.110392   1.898557 H        1 UNL1     0.2098
     109 H         -2.681596   -0.407916   1.879678 H        1 UNL1     0.0234
     110 H         -1.330071   0.586033   1.248612 H        1 UNL1     0.0234
     111 H         -1.272589   -1.13838   1.139357 H        1 UNL1     0.0234
     112 H         3.048503   -3.331319   4.861654 H        1 UNL1     0.0342
     113 H         3.744441   -3.214684   3.206268 H        1 UNL1     0.0342
     114 H         3.013302   -1.800174   3.969528 H        1 UNL1     0.0342
     115 H         2.337626   -0.243949   5.45167 H        1 UNL1     0.0234
     116 H         2.955916   1.332657   4.94886 H        1 UNL1     0.0234
     117 H         1.255773   1.067122   5.387783 H        1 UNL1     0.0234
     118 H         -5.851456   2.361271   2.235092 H        1 UNL1     0.0309
     119 H         -4.294283   1.537969   2.559818 H        1 UNL1     0.0309
     120 H         -5.227586   2.278405   3.841557 H        1 UNL1     0.0309
     121 H         0.558236   1.49878   6.741771 H        1 UNL1     0.0524
     122 H         -1.20789   1.482113   6.827662 H        1 UNL1     0.0524
     123 H         -0.33009   -0.020142   6.444986 H        1 UNL1     0.0524
@<TRIPOS>BOND
     1     1     2    1
     2     1    42    1
     3     2     3    2
     4     3     4    1
     5     4     5    2
     6     5     7    1
     7     6    75    1
     8     6    76    1
     9     6    77    1
    10     7     9   am
    11     9    10    1
    12    10    11    2
    13    10    43    1
    14    11    14    1
    15    11    15    1
    16    12    13   ar
    17    12    27   ar
    18    12    43    1
    19    13    14    1
    20    13    30   ar
    21    14    17    2
    22    15    16    1
    23    16    17    1
    24    16    18    1
    25    16    22    1
    26    18    19    1
    27    19    20    1
    28    20    21    1
    29    21    22    1
    30    23    24    1
    31    23    88    1
    32    23    89    1
    33    24    25    1
    34    24    26    1
    35    24    90    1
    36    25    91    1
    37    25    92    1
    38    25    93    1
    39    26    94    1
    40    26    95    1
    41    26    96    1
    42    27    28   ar
    43    28    29   ar
    44    29    30   ar
    45    29    31    1
    46    30    33    1
    47    31    32    1
    48    32    33    1
    49    32    35    1
    50    34    97    1
    51    34    98    1
    52    34    99    1
    53    35    61    1
    54    36    37    1
    55    36    60    1
    56    37    38    1
    57    38    39    1
    58    39    40    1
    59    40    41    1
    60    41    42    1
    61    45   100    1
    62    47   101    1
    63    47   102    1
    64    47   103    1
    65    48   104    1
    66    49   105    1
    67    49   106    1
    68    49   107    1
    69    50   108    1
    70    51    59    1
    71    52   109    1
    72    52   110    1
    73    52   111    1
    74    53    54    1
    75    54    55    2
    76    54    56    1
    77    56   112    1
    78    56   113    1
    79    56   114    1
    80    57   115    1
    81    57   116    1
    82    57   117    1
    83    58   118    1
    84    58   119    1
    85    58   120    1
    86    59   121    1
    87    59   122    1
    88    59   123    1
    89    60    61    2
    90     1    47    1
    91     1    62    1
    92     2    63    1
    93     3    64    1
    94     4    65    1
    95     5     6    1
    96     7     8    2
    97     9    78    1
    98    15    79    1
    99    18    80    1
   100    18    81    1
   101    19    82    1
   102    19    83    1
   103    20    23    1
   104    21    84    1
   105    21    85    1
   106    22    86    1
   107    22    87    1
   108    27    45    1
   109    28    34    1
   110    32    58    1
   111    33    46    2
   112    36    51    1
   113    36    66    1
   114    37    52    1
   115    37    67    1
   116    38    53    1
   117    38    68    1
   118    42    48    1
   119    42    72    1
   120    43    44    2
   121    60    73    1
   122    61    74    1
   123    39    69    1
   124    39    57    1
   125    40    70    1
   126    40    50    1
   127    41    71    1
   128    41    49    1
