@<TRIPOS>MOLECULE
*****
 123 128 0 0 0
SMALL
GASTEIGER

@<TRIPOS>ATOM
     1 C         4.972058   2.238626   0.528134 C.3        1 UNL1     0.0009
     2 C         6.35938   3.115182   -0.334436 C.2        1 UNL1     -0.0787
     3 C         7.671659   3.093423   -0.94558 C.2        1 UNL1     -0.0649
     4 C         8.457694   4.347593   -1.767505 C.2        1 UNL1     -0.0542
     5 C         9.483583   4.666749   -2.69096 C.2        1 UNL1     0.0115
     6 C         10.701991   4.091337   -3.464076 C.3        1 UNL1     -0.0348
     7 C         9.461744   6.101203   -3.411275 C.2        1 UNL1     0.2441
     8 O         10.186426   7.026853   -3.072847 O.2        1 UNL1     -0.2702
     9 N         8.745102   6.142481   -4.619941 N.am        1 UNL1     -0.2772
     10 C         7.419156   6.423361   -4.382673 C.2        1 UNL1     0.1049
     11 C         6.658852   5.398363   -4.042761 C.2        1 UNL1     0.0801
     12 C         5.914471   7.997279   -3.151398 C.ar        1 UNL1     0.0753
     13 C         5.248871   6.837529   -2.640942 C.ar        1 UNL1     0.0305
     14 C         5.517509   5.504117   -3.1747 C.2        1 UNL1     0.0924
     15 N         6.914901   4.079753   -4.090019 N.pl3        1 UNL1     -0.3170
     16 C         5.696232   3.383842   -3.772517 C.3        1 UNL1     0.1275
     17 N         4.930491   4.343858   -2.895172 N.2        1 UNL1     -0.2557
     18 C         4.895622   3.261099   -5.065444 C.3        1 UNL1     0.0016
     19 C         5.759461   2.570393   -6.108659 C.3        1 UNL1     0.0026
     20 N         6.143983   1.25947   -5.604029 N.3        1 UNL1     -0.3018
     21 C         6.866332   1.270969   -4.330276 C.3        1 UNL1     0.0026
     22 C         5.978465   1.965107   -3.295985 C.3        1 UNL1     0.0016
     23 C         6.711341   0.405144   -6.628176 C.3        1 UNL1     0.0012
     24 C         5.627518   -0.032023   -7.626159 C.3        1 UNL1     -0.0339
     25 C         5.885672   -1.454587   -8.149347 C.3        1 UNL1     -0.0615
     26 C         4.253976   0.088677   -6.989297 C.3        1 UNL1     -0.0615
     27 C         5.566684   9.276188   -2.722966 C.ar        1 UNL1     0.1347
     28 C         4.546632   9.522477   -1.821364 C.ar        1 UNL1     0.0342
     29 C         3.938293   8.362924   -1.295507 C.ar        1 UNL1     0.1435
     30 C         4.300717   7.07388   -1.688233 C.ar        1 UNL1     0.0774
     31 O         2.856198   8.438181   -0.490266 O.3        1 UNL1     -0.4436
     32 C         2.262658   7.132781   -0.557457 C.3        1 UNL1     0.3143
     33 C         3.387998   6.206836   -0.972728 C.2        1 UNL1     0.2504
     34 C         3.952732   10.867479   -1.507753 C.3        1 UNL1     -0.0327
     35 O         1.890447   6.764909   0.776478 O.2        1 UNL1     -0.4528
     36 C         -1.132838   4.496767   0.425238 C.3        1 UNL1     0.0854
     37 C         -1.277837   3.147014   -0.377672 C.3        1 UNL1     0.0236
     38 C         -1.787376   1.897   0.48811 C.3        1 UNL1     0.1131
     39 C         -1.069503   1.541931   1.852242 C.3        1 UNL1     0.0200
     40 C         0.594778   1.564963   1.962135 C.3        1 UNL1     0.0661
     41 C         1.671788   0.807311   0.892733 C.3        1 UNL1     0.0091
     42 C         3.35898   1.292569   0.360461 C.3        1 UNL1     0.0661
     43 C         6.926398   7.799091   -4.21863 C.2        1 UNL1     0.2131
     44 O         7.268241   8.674477   -4.992956 O.2        1 UNL1     -0.2851
     45 O         6.29456   10.34827   -3.235093 O.3        1 UNL1     -0.5056
     46 O         3.51377   5.024393   -0.74499 O.2        1 UNL1     -0.2836
     47 C         5.346863   1.962152   2.009034 C.3        1 UNL1     -0.0566
     48 O         3.936909   -0.056797   0.570996 O.3        1 UNL1     -0.3909
     49 C         0.916688   0.398851   -0.352449 C.3        1 UNL1     -0.0577
     50 O         1.058391   2.862755   2.276015 O.3        1 UNL1     -0.3910
     51 O         -1.296642   4.403154   1.822319 O.3        1 UNL1     -0.3753
     52 C         -0.175217   3.002591   -1.476908 C.3        1 UNL1     -0.0564
     53 O         -2.249183   0.737509   -0.34534 O.3        1 UNL1     -0.4608
     54 C         -2.45614   0.764331   -1.699732 C.2        1 UNL1     0.3042
     55 O         -3.533978   0.830636   -2.289401 O.2        1 UNL1     -0.2512
     56 C         -1.186218   0.766406   -2.502233 C.3        1 UNL1     0.0332
     57 C         -1.903798   2.231209   3.029961 C.3        1 UNL1     -0.0567
     58 C         1.215521   7.186373   -1.694189 C.3        1 UNL1     0.0210
     59 C         -1.700103   5.613621   2.460954 C.3        1 UNL1     0.0372
     60 C         0.138256   5.23461   0.190575 C.2        1 UNL1     -0.0208
     61 C         0.967851   5.823454   1.053003 C.2        1 UNL1     0.0882
     62 H         4.400735   3.174695   0.519437 H        1 UNL1     0.0365
     63 H         5.989143   4.142448   -0.323559 H        1 UNL1     0.0576
     64 H         8.228787   2.162461   -1.072171 H        1 UNL1     0.0615
     65 H         7.870937   5.234255   -1.512495 H        1 UNL1     0.0622
     66 H         -1.9319   5.139966   0.030469 H        1 UNL1     0.0645
     67 H         -2.142551   3.321416   -1.041309 H        1 UNL1     0.0362
     68 H         -2.785928   2.2638   0.770731 H        1 UNL1     0.0741
     69 H         -1.310504   0.521012   2.116912 H        1 UNL1     0.0359
     70 H         0.732144   0.98855   2.896982 H        1 UNL1     0.0600
     71 H         1.795049   -0.168725   1.40177 H        1 UNL1     0.0348
     72 H         3.16564   1.841695   1.293412 H        1 UNL1     0.0602
     73 H         0.280229   5.362366   -0.853824 H        1 UNL1     0.0628
     74 H         0.925561   5.694869   2.135091 H        1 UNL1     0.1022
     75 H         11.362856   3.509496   -2.777233 H        1 UNL1     0.0279
     76 H         10.482623   3.368239   -4.246429 H        1 UNL1     0.0279
     77 H         11.390293   4.873649   -3.81611 H        1 UNL1     0.0279
     78 H         8.788927   5.232944   -5.074803 H        1 UNL1     0.1553
     79 H         7.643532   3.673501   -4.647684 H        1 UNL1     0.1484
     80 H         3.978513   2.693883   -4.865586 H        1 UNL1     0.0317
     81 H         4.582284   4.246475   -5.426696 H        1 UNL1     0.0317
     82 H         6.644517   3.170496   -6.366465 H        1 UNL1     0.0428
     83 H         5.169995   2.494805   -7.022916 H        1 UNL1     0.0428
     84 H         7.072954   0.271863   -3.93416 H        1 UNL1     0.0428
     85 H         7.859854   1.72999   -4.427899 H        1 UNL1     0.0428
     86 H         6.477825   1.837516   -2.353463 H        1 UNL1     0.0317
     87 H         5.044923   1.403986   -3.166602 H        1 UNL1     0.0317
     88 H         7.473288   0.9809   -7.169689 H        1 UNL1     0.0429
     89 H         7.217449   -0.46346   -6.187546 H        1 UNL1     0.0429
     90 H         5.624333   0.658145   -8.47814 H        1 UNL1     0.0308
     91 H         6.136882   -2.138938   -7.333468 H        1 UNL1     0.0233
     92 H         5.010237   -1.835664   -8.680387 H        1 UNL1     0.0233
     93 H         6.717042   -1.492393   -8.86365 H        1 UNL1     0.0233
     94 H         3.538638   -0.558068   -7.508767 H        1 UNL1     0.0233
     95 H         4.29776   -0.228651   -5.943665 H        1 UNL1     0.0233
     96 H         3.883771   1.116871   -7.030943 H        1 UNL1     0.0233
     97 H         2.886269   10.899144   -1.709954 H        1 UNL1     0.0280
     98 H         4.065796   11.132979   -0.448516 H        1 UNL1     0.0280
     99 H         4.443945   11.640034   -2.121725 H        1 UNL1     0.0280
     100 H         7.228785   10.243565   -3.191712 H        1 UNL1     0.2922
     101 H         4.818071   2.65948   2.658472 H        1 UNL1     0.0236
     102 H         6.4215   1.971147   2.188077 H        1 UNL1     0.0236
     103 H         5.015041   0.964154   2.340827 H        1 UNL1     0.0236
     104 H         4.20614   -0.401956   -0.302703 H        1 UNL1     0.2098
     105 H         0.685092   1.219542   -1.02672 H        1 UNL1     0.0234
     106 H         1.361977   -0.429052   -0.90401 H        1 UNL1     0.0234
     107 H         0.0   -0.0   0.0 H        1 UNL1     0.0234
     108 H         2.025623   2.803795   2.39748 H        1 UNL1     0.2098
     109 H         -0.482337   3.445074   -2.434822 H        1 UNL1     0.0234
     110 H         0.791538   3.419061   -1.17412 H        1 UNL1     0.0234
     111 H         0.044953   1.94872   -1.693305 H        1 UNL1     0.0234
     112 H         -1.420889   0.809529   -3.570135 H        1 UNL1     0.0342
     113 H         -0.521632   1.579865   -2.215087 H        1 UNL1     0.0342
     114 H         -0.658175   -0.177993   -2.311326 H        1 UNL1     0.0342
     115 H         -1.273784   2.44921   3.903314 H        1 UNL1     0.0234
     116 H         -2.395991   3.161554   2.739698 H        1 UNL1     0.0234
     117 H         -2.664797   1.568207   3.476336 H        1 UNL1     0.0234
     118 H         0.206882   7.430915   -1.317555 H        1 UNL1     0.0309
     119 H         1.480897   7.889578   -2.489978 H        1 UNL1     0.0309
     120 H         1.074504   6.21563   -2.181918 H        1 UNL1     0.0309
     121 H         -1.357511   5.57115   3.494484 H        1 UNL1     0.0524
     122 H         -1.244223   6.503804   1.996426 H        1 UNL1     0.0524
     123 H         -2.781328   5.713512   2.428272 H        1 UNL1     0.0524
@<TRIPOS>BOND
     1     1     2    1
     2     1    42    1
     3     2     3    2
     4     3     4    1
     5     4     5    2
     6     5     7    1
     7     6    75    1
     8     6    76    1
     9     6    77    1
    10     7     9   am
    11     9    10    1
    12    10    11    2
    13    10    43    1
    14    11    14    1
    15    11    15    1
    16    12    13   ar
    17    12    27   ar
    18    12    43    1
    19    13    14    1
    20    13    30   ar
    21    14    17    2
    22    15    16    1
    23    16    17    1
    24    16    18    1
    25    16    22    1
    26    18    19    1
    27    19    20    1
    28    20    21    1
    29    21    22    1
    30    23    24    1
    31    23    88    1
    32    23    89    1
    33    24    25    1
    34    24    26    1
    35    24    90    1
    36    25    91    1
    37    25    92    1
    38    25    93    1
    39    26    94    1
    40    26    95    1
    41    26    96    1
    42    27    28   ar
    43    28    29   ar
    44    29    30   ar
    45    29    31    1
    46    30    33    1
    47    31    32    1
    48    32    33    1
    49    32    35    1
    50    34    97    1
    51    34    98    1
    52    34    99    1
    53    35    61    1
    54    36    37    1
    55    36    60    1
    56    37    38    1
    57    38    39    1
    58    39    40    1
    59    40    41    1
    60    41    42    1
    61    45   100    1
    62    47   101    1
    63    47   102    1
    64    47   103    1
    65    48   104    1
    66    49   105    1
    67    49   106    1
    68    49   107    1
    69    50   108    1
    70    51    59    1
    71    52   109    1
    72    52   110    1
    73    52   111    1
    74    53    54    1
    75    54    55    2
    76    54    56    1
    77    56   112    1
    78    56   113    1
    79    56   114    1
    80    57   115    1
    81    57   116    1
    82    57   117    1
    83    58   118    1
    84    58   119    1
    85    58   120    1
    86    59   121    1
    87    59   122    1
    88    59   123    1
    89    60    61    2
    90     1    47    1
    91     1    62    1
    92     2    63    1
    93     3    64    1
    94     4    65    1
    95     5     6    1
    96     7     8    2
    97     9    78    1
    98    15    79    1
    99    18    80    1
   100    18    81    1
   101    19    82    1
   102    19    83    1
   103    20    23    1
   104    21    84    1
   105    21    85    1
   106    22    86    1
   107    22    87    1
   108    27    45    1
   109    28    34    1
   110    32    58    1
   111    33    46    2
   112    36    51    1
   113    36    66    1
   114    37    52    1
   115    37    67    1
   116    38    53    1
   117    38    68    1
   118    42    48    1
   119    42    72    1
   120    43    44    2
   121    60    73    1
   122    61    74    1
   123    39    69    1
   124    39    57    1
   125    40    70    1
   126    40    50    1
   127    41    71    1
   128    41    49    1
