@<TRIPOS>MOLECULE
*****
 123 128 0 0 0
SMALL
GASTEIGER

@<TRIPOS>ATOM
     1 C         2.909142   -2.023932   -3.351616 C.3        1 UNL1     0.0009
     2 C         3.0897   -3.604216   -4.304053 C.2        1 UNL1     -0.0787
     3 C         3.52766   -4.982076   -4.379802 C.2        1 UNL1     -0.0649
     4 C         3.282158   -6.084134   -5.64137 C.2        1 UNL1     -0.0542
     5 C         3.253203   -7.455461   -5.995914 C.2        1 UNL1     0.0115
     6 C         3.586948   -8.889095   -5.499293 C.3        1 UNL1     -0.0348
     7 C         2.514849   -7.891586   -7.352976 C.2        1 UNL1     0.2441
     8 O         3.119176   -8.168505   -8.379928 O.2        1 UNL1     -0.2702
     9 N         1.147797   -8.18683   -7.211015 N.am        1 UNL1     -0.2772
     10 C         0.392336   -7.046323   -7.35881 C.2        1 UNL1     0.1049
     11 C         0.272128   -6.284785   -6.286507 C.2        1 UNL1     0.0801
     12 C         0.061942   -5.06531   -8.850039 C.ar        1 UNL1     0.0753
     13 C         0.148199   -4.260783   -7.669401 C.ar        1 UNL1     0.0305
     14 C         0.124369   -4.855379   -6.334883 C.2        1 UNL1     0.0924
     15 N         0.592266   -6.539064   -5.006124 N.pl3        1 UNL1     -0.3170
     16 C         0.102651   -5.448187   -4.205799 C.3        1 UNL1     0.1275
     17 N         0.095153   -4.265438   -5.143227 N.2        1 UNL1     -0.2557
     18 C         -1.359375   -5.743451   -3.884859 C.3        1 UNL1     0.0016
     19 C         -1.44427   -7.103813   -3.211215 C.3        1 UNL1     0.0026
     20 N         -0.636918   -7.076907   -1.999403 N.3        1 UNL1     -0.3018
     21 C         0.774068   -6.740223   -2.199731 C.3        1 UNL1     0.0026
     22 C         0.835867   -5.368225   -2.873302 C.3        1 UNL1     0.0016
     23 C         -0.884101   -8.211274   -1.131787 C.3        1 UNL1     0.0012
     24 C         -2.277604   -8.106682   -0.492282 C.3        1 UNL1     -0.0339
     25 C         -3.163712   -9.303178   -0.876035 C.3        1 UNL1     -0.0615
     26 C         -2.149852   -7.966265   1.014616 C.3        1 UNL1     -0.0615
     27 C         -0.036501   -4.485722   -10.112776 C.ar        1 UNL1     0.1347
     28 C         -0.09795   -3.118744   -10.316844 C.ar        1 UNL1     0.0342
     29 C         0.03791   -2.345713   -9.144184 C.ar        1 UNL1     0.1435
     30 C         0.173591   -2.912022   -7.876074 C.ar        1 UNL1     0.0774
     31 O         -0.111652   -1.003233   -9.163798 O.3        1 UNL1     -0.4436
     32 C         -0.377739   -0.647992   -7.79856 C.3        1 UNL1     0.3143
     33 C         0.202907   -1.779328   -6.974458 C.2        1 UNL1     0.2504
     34 C         -0.454299   -2.435084   -11.607473 C.3        1 UNL1     -0.0327
     35 O         0.395507   0.521961   -7.504363 O.2        1 UNL1     -0.4528
     36 C         -1.573832   2.439876   -4.886845 C.3        1 UNL1     0.0854
     37 C         -2.068951   1.965078   -3.466652 C.3        1 UNL1     0.0236
     38 C         -1.606609   2.894393   -2.244213 C.3        1 UNL1     0.1131
     39 C         -0.081953   3.286209   -2.088734 C.3        1 UNL1     0.0200
     40 C         1.111255   2.141643   -2.309335 C.3        1 UNL1     0.0661
     41 C         1.159549   0.605481   -1.591363 C.3        1 UNL1     0.0091
     42 C         1.836156   -0.980307   -2.218166 C.3        1 UNL1     0.0661
     43 C         -0.009406   -6.537665   -8.678743 C.2        1 UNL1     0.2131
     44 O         -0.465655   -7.29169   -9.518992 O.2        1 UNL1     -0.2851
     45 O         -0.070049   -5.339324   -11.213538 O.3        1 UNL1     -0.5056
     46 O         0.617142   -1.747626   -5.837243 O.2        1 UNL1     -0.2836
     47 C         4.277862   -1.299227   -3.244895 C.3        1 UNL1     -0.0566
     48 O         2.56429   -1.296082   -0.965479 O.3        1 UNL1     -0.3909
     49 C         -0.19755   0.301845   -0.996736 C.3        1 UNL1     -0.0577
     50 O         1.470985   2.049126   -3.673064 O.3        1 UNL1     -0.3910
     51 O         -0.652811   3.507168   -4.893085 O.3        1 UNL1     -0.3753
     52 C         -2.110239   0.4059   -3.356168 C.3        1 UNL1     -0.0564
     53 O         -2.362861   2.636021   -0.973917 O.3        1 UNL1     -0.4608
     54 C         -1.830197   2.664525   0.288377 C.2        1 UNL1     0.3042
     55 O         -1.500007   1.703121   0.981568 O.2        1 UNL1     -0.2512
     56 C         -1.594447   4.053267   0.810423 C.3        1 UNL1     0.0332
     57 C         0.120956   4.716309   -2.775622 C.3        1 UNL1     -0.0567
     58 C         -1.91577   -0.651773   -7.637395 C.3        1 UNL1     0.0210
     59 C         -1.180942   4.751977   -5.348489 C.3        1 UNL1     0.0372
     60 C         -0.994508   1.36798   -5.741587 C.2        1 UNL1     -0.0208
     61 C         0.108673   1.361551   -6.49105 C.2        1 UNL1     0.0882
     62 H         2.389801   -1.586605   -4.21286 H        1 UNL1     0.0365
     63 H         2.706857   -3.29859   -5.280011 H        1 UNL1     0.0576
     64 H         3.9382   -5.500829   -3.51063 H        1 UNL1     0.0615
     65 H         2.951452   -5.457529   -6.474127 H        1 UNL1     0.0622
     66 H         -2.486617   2.774034   -5.399883 H        1 UNL1     0.0645
     67 H         -3.156673   2.152335   -3.485536 H        1 UNL1     0.0362
     68 H         -2.121335   3.828007   -2.517974 H        1 UNL1     0.0741
     69 H         0.090781   3.616073   -1.072978 H        1 UNL1     0.0359
     70 H         1.964443   2.661357   -1.832859 H        1 UNL1     0.0600
     71 H         1.748438   0.835637   -0.68186 H        1 UNL1     0.0348
     72 H         2.310085   -0.190056   -2.818341 H        1 UNL1     0.0602
     73 H         -1.677941   0.557319   -5.796331 H        1 UNL1     0.0628
     74 H         0.886545   2.124744   -6.449947 H        1 UNL1     0.1022
     75 H         4.611335   -8.921816   -5.055901 H        1 UNL1     0.0279
     76 H         2.970038   -9.279023   -4.69279 H        1 UNL1     0.0279
     77 H         3.683676   -9.612443   -6.322162 H        1 UNL1     0.0279
     78 H         0.971885   -8.551931   -6.277295 H        1 UNL1     0.1553
     79 H         0.731012   -7.462828   -4.639596 H        1 UNL1     0.1484
     80 H         -1.750275   -4.950214   -3.236216 H        1 UNL1     0.0317
     81 H         -1.969379   -5.733582   -4.794501 H        1 UNL1     0.0317
     82 H         -1.12165   -7.912088   -3.883911 H        1 UNL1     0.0428
     83 H         -2.495308   -7.295202   -2.992721 H        1 UNL1     0.0428
     84 H         1.339795   -6.648532   -1.267338 H        1 UNL1     0.0428
     85 H         1.305711   -7.522803   -2.758516 H        1 UNL1     0.0428
     86 H         1.875229   -5.096891   -2.882816 H        1 UNL1     0.0317
     87 H         0.381751   -4.61069   -2.222905 H        1 UNL1     0.0317
     88 H         -0.847391   -9.122802   -1.742577 H        1 UNL1     0.0429
     89 H         -0.103151   -8.305427   -0.366263 H        1 UNL1     0.0429
     90 H         -2.763654   -7.186909   -0.838671 H        1 UNL1     0.0308
     91 H         -2.624192   -10.248775   -0.767103 H        1 UNL1     0.0233
     92 H         -4.064261   -9.330841   -0.25809 H        1 UNL1     0.0233
     93 H         -3.507976   -9.251321   -1.916049 H        1 UNL1     0.0233
     94 H         -3.080232   -8.275629   1.503004 H        1 UNL1     0.0233
     95 H         -1.345732   -8.609437   1.382966 H        1 UNL1     0.0233
     96 H         -1.935451   -6.933213   1.302376 H        1 UNL1     0.0233
     97 H         -1.321353   -1.790019   -11.500992 H        1 UNL1     0.0280
     98 H         0.356489   -1.79099   -11.972195 H        1 UNL1     0.0280
     99 H         -0.679266   -3.192282   -12.376328 H        1 UNL1     0.0280
     100 H         0.602716   -5.997332   -11.219373 H        1 UNL1     0.2922
     101 H         4.299668   -0.451945   -3.929945 H        1 UNL1     0.0236
     102 H         5.127889   -1.964964   -3.390609 H        1 UNL1     0.0236
     103 H         4.435404   -0.856568   -2.247185 H        1 UNL1     0.0236
     104 H         2.93148   -0.459431   -0.618842 H        1 UNL1     0.2098
     105 H         -0.872072   1.153551   -0.958957 H        1 UNL1     0.0234
     106 H         -0.702388   -0.560882   -1.431211 H        1 UNL1     0.0234
     107 H         0.0   -0.0   0.0 H        1 UNL1     0.0234
     108 H         2.402464   1.757789   -3.708257 H        1 UNL1     0.2098
     109 H         -2.796927   -0.044815   -4.086255 H        1 UNL1     0.0234
     110 H         -1.122341   -0.058336   -3.447206 H        1 UNL1     0.0234
     111 H         -2.468029   0.07933   -2.37063 H        1 UNL1     0.0234
     112 H         -1.150606   4.004953   1.80943 H        1 UNL1     0.0342
     113 H         -0.976465   4.6447   0.136517 H        1 UNL1     0.0342
     114 H         -2.567152   4.55659   0.898043 H        1 UNL1     0.0342
     115 H         0.889917   5.310307   -2.262735 H        1 UNL1     0.0234
     116 H         0.394236   4.666884   -3.831522 H        1 UNL1     0.0234
     117 H         -0.757274   5.378005   -2.681748 H        1 UNL1     0.0234
     118 H         -2.320603   0.366004   -7.498662 H        1 UNL1     0.0309
     119 H         -2.434136   -1.13257   -8.473058 H        1 UNL1     0.0309
     120 H         -2.242497   -1.178812   -6.734296 H        1 UNL1     0.0309
     121 H         -1.825501   5.144056   -4.562249 H        1 UNL1     0.0524
     122 H         -0.391096   5.49893   -5.533537 H        1 UNL1     0.0524
     123 H         -1.750159   4.606973   -6.262306 H        1 UNL1     0.0524
@<TRIPOS>BOND
     1     1     2    1
     2     1    42    1
     3     2     3    2
     4     3     4    1
     5     4     5    2
     6     5     7    1
     7     6    75    1
     8     6    76    1
     9     6    77    1
    10     7     9   am
    11     9    10    1
    12    10    11    2
    13    10    43    1
    14    11    14    1
    15    11    15    1
    16    12    13   ar
    17    12    27   ar
    18    12    43    1
    19    13    14    1
    20    13    30   ar
    21    14    17    2
    22    15    16    1
    23    16    17    1
    24    16    18    1
    25    16    22    1
    26    18    19    1
    27    19    20    1
    28    20    21    1
    29    21    22    1
    30    23    24    1
    31    23    88    1
    32    23    89    1
    33    24    25    1
    34    24    26    1
    35    24    90    1
    36    25    91    1
    37    25    92    1
    38    25    93    1
    39    26    94    1
    40    26    95    1
    41    26    96    1
    42    27    28   ar
    43    28    29   ar
    44    29    30   ar
    45    29    31    1
    46    30    33    1
    47    31    32    1
    48    32    33    1
    49    32    35    1
    50    34    97    1
    51    34    98    1
    52    34    99    1
    53    35    61    1
    54    36    37    1
    55    36    60    1
    56    37    38    1
    57    38    39    1
    58    39    40    1
    59    40    41    1
    60    41    42    1
    61    45   100    1
    62    47   101    1
    63    47   102    1
    64    47   103    1
    65    48   104    1
    66    49   105    1
    67    49   106    1
    68    49   107    1
    69    50   108    1
    70    51    59    1
    71    52   109    1
    72    52   110    1
    73    52   111    1
    74    53    54    1
    75    54    55    2
    76    54    56    1
    77    56   112    1
    78    56   113    1
    79    56   114    1
    80    57   115    1
    81    57   116    1
    82    57   117    1
    83    58   118    1
    84    58   119    1
    85    58   120    1
    86    59   121    1
    87    59   122    1
    88    59   123    1
    89    60    61    2
    90     1    47    1
    91     1    62    1
    92     2    63    1
    93     3    64    1
    94     4    65    1
    95     5     6    1
    96     7     8    2
    97     9    78    1
    98    15    79    1
    99    18    80    1
   100    18    81    1
   101    19    82    1
   102    19    83    1
   103    20    23    1
   104    21    84    1
   105    21    85    1
   106    22    86    1
   107    22    87    1
   108    27    45    1
   109    28    34    1
   110    32    58    1
   111    33    46    2
   112    36    51    1
   113    36    66    1
   114    37    52    1
   115    37    67    1
   116    38    53    1
   117    38    68    1
   118    42    48    1
   119    42    72    1
   120    43    44    2
   121    60    73    1
   122    61    74    1
   123    39    69    1
   124    39    57    1
   125    40    70    1
   126    40    50    1
   127    41    71    1
   128    41    49    1
