@<TRIPOS>MOLECULE
*****
 123 128 0 0 0
SMALL
GASTEIGER

@<TRIPOS>ATOM
     1 C         4.603332   2.834173   0.664015 C.3        1 UNL1     0.0009
     2 C         5.636822   4.211384   -0.023172 C.2        1 UNL1     -0.0787
     3 C         6.818453   4.664681   -0.726248 C.2        1 UNL1     -0.0649
     4 C         7.199578   6.241082   -1.212107 C.2        1 UNL1     -0.0542
     5 C         7.987651   7.027449   -2.088262 C.2        1 UNL1     0.0115
     6 C         9.166672   6.983758   -3.098866 C.3        1 UNL1     -0.0348
     7 C         7.565916   8.553357   -2.35422 C.2        1 UNL1     0.2441
     8 O         8.129703   9.501423   -1.82522 O.2        1 UNL1     -0.2702
     9 N         6.681795   8.740956   -3.430922 N.am        1 UNL1     -0.2772
     10 C         5.377778   8.625416   -3.007232 C.2        1 UNL1     0.1049
     11 C         4.902149   7.396732   -2.915937 C.2        1 UNL1     0.0801
     12 C         3.787819   9.413183   -1.244057 C.ar        1 UNL1     0.0753
     13 C         3.456968   8.036   -1.037873 C.ar        1 UNL1     0.0305
     14 C         3.907572   6.99469   -1.958569 C.2        1 UNL1     0.0924
     15 N         5.411007   6.237676   -3.367803 N.pl3        1 UNL1     -0.3170
     16 C         4.421627   5.213482   -3.161872 C.3        1 UNL1     0.1275
     17 N         3.617982   5.696756   -1.979364 N.2        1 UNL1     -0.2557
     18 C         3.47693   5.250079   -4.359332 C.3        1 UNL1     0.0016
     19 C         4.295635   5.085689   -5.629878 C.3        1 UNL1     0.0026
     20 N         5.010523   3.818505   -5.565019 N.3        1 UNL1     -0.3018
     21 C         5.899254   3.664387   -4.411427 C.3        1 UNL1     0.0026
     22 C         5.055258   3.82863   -3.146283 C.3        1 UNL1     0.0016
     23 C         5.578592   3.425634   -6.839223 C.3        1 UNL1     0.0012
     24 C         4.468423   3.02304   -7.822686 C.3        1 UNL1     -0.0339
     25 C         4.136004   4.167155   -8.794569 C.3        1 UNL1     -0.0615
     26 C         4.862807   1.757143   -8.56346 C.3        1 UNL1     -0.0615
     27 C         3.255837   10.412566   -0.432671 C.ar        1 UNL1     0.1347
     28 C         2.355062   10.161858   0.587035 C.ar        1 UNL1     0.0342
     29 C         2.081889   8.794407   0.802947 C.ar        1 UNL1     0.1435
     30 C         2.635482   7.779594   0.02134 C.ar        1 UNL1     0.0774
     31 O         1.141348   8.394555   1.686411 O.3        1 UNL1     -0.4436
     32 C         0.822639   7.051055   1.293596 C.3        1 UNL1     0.3143
     33 C         2.036973   6.56302   0.529771 C.2        1 UNL1     0.2504
     34 C         1.554216   11.194828   1.329811 C.3        1 UNL1     -0.0327
     35 O         0.738796   6.266128   2.489469 O.2        1 UNL1     -0.4528
     36 C         -1.777376   3.52   1.757521 C.3        1 UNL1     0.0854
     37 C         -1.76422   2.436179   0.611798 C.3        1 UNL1     0.0236
     38 C         -1.872095   0.917831   1.116502 C.3        1 UNL1     0.1131
     39 C         -0.899466   0.396147   2.249687 C.3        1 UNL1     0.0200
     40 C         0.722418   0.78445   2.215759 C.3        1 UNL1     0.0661
     41 C         1.757009   0.615108   0.882134 C.3        1 UNL1     0.0091
     42 C         3.210064   1.610611   0.369291 C.3        1 UNL1     0.0661
     43 C         4.645943   9.750694   -2.406799 C.2        1 UNL1     0.2131
     44 O         4.681625   10.854839   -2.91898 O.2        1 UNL1     -0.2851
     45 O         3.664517   11.723064   -0.671448 O.3        1 UNL1     -0.5056
     46 O         2.433612   5.427566   0.390934 O.2        1 UNL1     -0.2836
     47 C         5.245722   2.273492   1.961302 C.3        1 UNL1     -0.0566
     48 O         4.075475   0.431227   0.125912 O.3        1 UNL1     -0.3909
     49 C         0.921678   0.382865   -0.357132 C.3        1 UNL1     -0.0577
     50 O         0.954228   2.024737   2.852685 O.3        1 UNL1     -0.3910
     51 O         -1.705882   3.024286   3.075318 O.3        1 UNL1     -0.3753
     52 C         -0.834132   2.85397   -0.573671 C.3        1 UNL1     -0.0564
     53 O         -2.208733   -0.055437   0.024828 O.3        1 UNL1     -0.4608
     54 C         -1.997949   -1.408642   0.073175 C.2        1 UNL1     0.3042
     55 O         -1.193616   -2.06335   -0.588825 O.2        1 UNL1     -0.2512
     56 C         -2.831434   -2.11055   1.107264 C.3        1 UNL1     0.0332
     57 C         -1.668996   0.530679   3.645358 C.3        1 UNL1     -0.0567
     58 C         -0.372842   7.152548   0.317863 C.3        1 UNL1     0.0210
     59 C         -2.2946   3.866459   4.065277 C.3        1 UNL1     0.0372
     60 C         -0.733307   4.573959   1.638149 C.2        1 UNL1     -0.0208
     61 C         0.079603   5.093682   2.558915 C.2        1 UNL1     0.0882
     62 H         3.858875   3.575492   0.978565 H        1 UNL1     0.0365
     63 H         5.07129   5.080592   0.319057 H        1 UNL1     0.0576
     64 H         7.527716   3.960518   -1.166938 H        1 UNL1     0.0615
     65 H         6.490053   6.862851   -0.659422 H        1 UNL1     0.0622
     66 H         -2.740833   4.035464   1.638806 H        1 UNL1     0.0645
     67 H         -2.73639   2.56893   0.10601 H        1 UNL1     0.0362
     68 H         -2.870034   0.948473   1.579859 H        1 UNL1     0.0741
     69 H         -0.884923   -0.685331   2.225155 H        1 UNL1     0.0359
     70 H         1.113711   0.031286   2.926178 H        1 UNL1     0.0600
     71 H         2.151687   -0.402373   1.071654 H        1 UNL1     0.0348
     72 H         3.052143   1.831284   1.434974 H        1 UNL1     0.0602
     73 H         -0.779625   5.003175   0.668161 H        1 UNL1     0.0628
     74 H         0.22821   4.677437   3.555857 H        1 UNL1     0.1022
     75 H         9.543607   5.939199   -3.216558 H        1 UNL1     0.0279
     76 H         8.937885   7.267115   -4.123773 H        1 UNL1     0.0279
     77 H         10.065014   7.497773   -2.72675 H        1 UNL1     0.0279
     78 H         6.840586   8.021502   -4.133239 H        1 UNL1     0.1553
     79 H         6.114338   6.17866   -4.081088 H        1 UNL1     0.1484
     80 H         2.735325   4.448986   -4.254271 H        1 UNL1     0.0317
     81 H         2.918785   6.192024   -4.388759 H        1 UNL1     0.0317
     82 H         4.990793   5.925214   -5.77775 H        1 UNL1     0.0428
     83 H         3.602763   5.116492   -6.471323 H        1 UNL1     0.0428
     84 H         6.36222   2.675016   -4.343477 H        1 UNL1     0.0428
     85 H         6.752226   4.355509   -4.457326 H        1 UNL1     0.0428
     86 H         5.706572   3.579025   -2.329291 H        1 UNL1     0.0317
     87 H         4.285878   3.047952   -3.10514 H        1 UNL1     0.0317
     88 H         6.116783   4.288109   -7.25369 H        1 UNL1     0.0429
     89 H         6.31144   2.617697   -6.716969 H        1 UNL1     0.0429
     90 H         3.563014   2.770094   -7.258359 H        1 UNL1     0.0308
     91 H         5.021977   4.485482   -9.352083 H        1 UNL1     0.0233
     92 H         3.35923   3.86176   -9.499527 H        1 UNL1     0.0233
     93 H         3.749082   5.054245   -8.278626 H        1 UNL1     0.0233
     94 H         4.171709   1.574337   -9.3934 H        1 UNL1     0.0233
     95 H         5.868263   1.86567   -8.979686 H        1 UNL1     0.0233
     96 H         4.846645   0.886328   -7.902106 H        1 UNL1     0.0233
     97 H         0.881021   10.745376   2.053712 H        1 UNL1     0.0280
     98 H         2.192771   11.882382   1.899701 H        1 UNL1     0.0280
     99 H         0.952476   11.779507   0.61486 H        1 UNL1     0.0280
     100 H         2.961547   12.33385   -0.807076 H        1 UNL1     0.2922
     101 H         4.602974   1.502964   2.386529 H        1 UNL1     0.0236
     102 H         5.491228   3.04782   2.687337 H        1 UNL1     0.0236
     103 H         6.20204   1.761659   1.762117 H        1 UNL1     0.0236
     104 H         4.589228   0.26909   0.941228 H        1 UNL1     0.2098
     105 H         0.708847   1.281786   -0.930241 H        1 UNL1     0.0234
     106 H         1.290223   -0.405267   -1.0136 H        1 UNL1     0.0234
     107 H         0.0   -0.0   0.0 H        1 UNL1     0.0234
     108 H         0.513891   2.712601   2.317227 H        1 UNL1     0.2098
     109 H         0.204614   3.012118   -0.251634 H        1 UNL1     0.0234
     110 H         -0.855138   2.144475   -1.407888 H        1 UNL1     0.0234
     111 H         -1.15366   3.803403   -1.023589 H        1 UNL1     0.0234
     112 H         -2.600483   -3.180133   1.108051 H        1 UNL1     0.0342
     113 H         -2.699697   -1.681664   2.099507 H        1 UNL1     0.0342
     114 H         -3.888806   -1.99453   0.832185 H        1 UNL1     0.0342
     115 H         -2.602323   -0.048978   3.65465 H        1 UNL1     0.0234
     116 H         -1.079437   0.21765   4.50935 H        1 UNL1     0.0234
     117 H         -2.048135   1.548216   3.842368 H        1 UNL1     0.0234
     118 H         -1.336998   7.230452   0.85016 H        1 UNL1     0.0309
     119 H         -0.283682   7.986485   -0.385558 H        1 UNL1     0.0309
     120 H         -0.494004   6.251704   -0.293616 H        1 UNL1     0.0309
     121 H         -1.722008   4.793145   4.092634 H        1 UNL1     0.0524
     122 H         -3.338484   4.128218   3.824805 H        1 UNL1     0.0524
     123 H         -2.267732   3.380435   5.036437 H        1 UNL1     0.0524
@<TRIPOS>BOND
     1     1     2    1
     2     1    42    1
     3     2     3    2
     4     3     4    1
     5     4     5    2
     6     5     7    1
     7     6    75    1
     8     6    76    1
     9     6    77    1
    10     7     9   am
    11     9    10    1
    12    10    11    2
    13    10    43    1
    14    11    14    1
    15    11    15    1
    16    12    13   ar
    17    12    27   ar
    18    12    43    1
    19    13    14    1
    20    13    30   ar
    21    14    17    2
    22    15    16    1
    23    16    17    1
    24    16    18    1
    25    16    22    1
    26    18    19    1
    27    19    20    1
    28    20    21    1
    29    21    22    1
    30    23    24    1
    31    23    88    1
    32    23    89    1
    33    24    25    1
    34    24    26    1
    35    24    90    1
    36    25    91    1
    37    25    92    1
    38    25    93    1
    39    26    94    1
    40    26    95    1
    41    26    96    1
    42    27    28   ar
    43    28    29   ar
    44    29    30   ar
    45    29    31    1
    46    30    33    1
    47    31    32    1
    48    32    33    1
    49    32    35    1
    50    34    97    1
    51    34    98    1
    52    34    99    1
    53    35    61    1
    54    36    37    1
    55    36    60    1
    56    37    38    1
    57    38    39    1
    58    39    40    1
    59    40    41    1
    60    41    42    1
    61    45   100    1
    62    47   101    1
    63    47   102    1
    64    47   103    1
    65    48   104    1
    66    49   105    1
    67    49   106    1
    68    49   107    1
    69    50   108    1
    70    51    59    1
    71    52   109    1
    72    52   110    1
    73    52   111    1
    74    53    54    1
    75    54    55    2
    76    54    56    1
    77    56   112    1
    78    56   113    1
    79    56   114    1
    80    57   115    1
    81    57   116    1
    82    57   117    1
    83    58   118    1
    84    58   119    1
    85    58   120    1
    86    59   121    1
    87    59   122    1
    88    59   123    1
    89    60    61    2
    90     1    47    1
    91     1    62    1
    92     2    63    1
    93     3    64    1
    94     4    65    1
    95     5     6    1
    96     7     8    2
    97     9    78    1
    98    15    79    1
    99    18    80    1
   100    18    81    1
   101    19    82    1
   102    19    83    1
   103    20    23    1
   104    21    84    1
   105    21    85    1
   106    22    86    1
   107    22    87    1
   108    27    45    1
   109    28    34    1
   110    32    58    1
   111    33    46    2
   112    36    51    1
   113    36    66    1
   114    37    52    1
   115    37    67    1
   116    38    53    1
   117    38    68    1
   118    42    48    1
   119    42    72    1
   120    43    44    2
   121    60    73    1
   122    61    74    1
   123    39    69    1
   124    39    57    1
   125    40    70    1
   126    40    50    1
   127    41    71    1
   128    41    49    1
