@<TRIPOS>MOLECULE
*****
 123 128 0 0 0
SMALL
GASTEIGER

@<TRIPOS>ATOM
     1 C         2.370254   -4.500875   1.784157 C.3        1 UNL1     0.0009
     2 C         3.204184   -5.334888   3.214549 C.2        1 UNL1     -0.0787
     3 C         4.40896   -5.675202   3.941699 C.2        1 UNL1     -0.0649
     4 C         4.535741   -6.465262   5.433707 C.2        1 UNL1     -0.0542
     5 C         5.372718   -6.710697   6.550089 C.2        1 UNL1     0.0115
     6 C         6.818028   -6.549956   7.096499 C.3        1 UNL1     -0.0348
     7 C         4.714441   -7.252077   7.910444 C.2        1 UNL1     0.2441
     8 O         4.774431   -8.423277   8.258608 O.2        1 UNL1     -0.2702
     9 N         4.292399   -6.249081   8.800406 N.am        1 UNL1     -0.2772
     10 C         3.000342   -5.869286   8.518158 C.2        1 UNL1     0.1049
     11 C         2.852556   -4.982   7.55115 C.2        1 UNL1     0.0801
     12 C         0.714485   -6.785546   8.079226 C.ar        1 UNL1     0.0753
     13 C         0.688987   -5.951634   6.916235 C.ar        1 UNL1     0.0305
     14 C         1.704007   -4.925626   6.687996 C.2        1 UNL1     0.0924
     15 N         3.769969   -4.222984   6.92763 N.pl3        1 UNL1     -0.3170
     16 C         3.070049   -3.300351   6.073747 C.3        1 UNL1     0.1275
     17 N         1.781911   -4.007225   5.729144 N.2        1 UNL1     -0.2557
     18 C         2.678377   -2.099883   6.930001 C.3        1 UNL1     0.0016
     19 C         3.933094   -1.531465   7.573564 C.3        1 UNL1     0.0026
     20 N         4.86356   -1.143971   6.522322 N.3        1 UNL1     -0.3018
     21 C         5.251879   -2.21996   5.608088 C.3        1 UNL1     0.0026
     22 C         3.976777   -2.773234   4.969419 C.3        1 UNL1     0.0016
     23 C         5.954481   -0.323281   7.009151 C.3        1 UNL1     0.0012
     24 C         7.275086   -1.108611   6.977281 C.3        1 UNL1     -0.0339
     25 C         7.823778   -1.228329   5.545967 C.3        1 UNL1     -0.0615
     26 C         8.285711   -0.466167   7.911456 C.3        1 UNL1     -0.0615
     27 C         -0.320549   -7.677208   8.350815 C.ar        1 UNL1     0.1347
     28 C         -1.447692   -7.794866   7.557244 C.ar        1 UNL1     0.0342
     29 C         -1.428083   -6.999372   6.391924 C.ar        1 UNL1     0.1435
     30 C         -0.381318   -6.12806   6.088083 C.ar        1 UNL1     0.0774
     31 O         -2.50091   -6.919847   5.57478 O.3        1 UNL1     -0.4436
     32 C         -2.295282   -5.714544   4.822559 C.3        1 UNL1     0.3143
     33 C         -0.80076   -5.468669   4.869052 C.2        1 UNL1     0.2504
     34 C         -2.704026   -8.539059   7.914876 C.3        1 UNL1     -0.0327
     35 O         -2.628659   -6.001422   3.45881 O.2        1 UNL1     -0.4528
     36 C         -3.893319   -2.738608   1.988175 C.3        1 UNL1     0.0854
     37 C         -3.170527   -1.339637   1.898881 C.3        1 UNL1     0.0236
     38 C         -3.076216   -0.720647   0.4225 C.3        1 UNL1     0.1131
     39 C         -2.512786   -1.602219   -0.763944 C.3        1 UNL1     0.0200
     40 C         -1.155829   -2.547051   -0.543948 C.3        1 UNL1     0.0661
     41 C         0.31617   -2.031847   0.123431 C.3        1 UNL1     0.0091
     42 C         1.552807   -2.944404   1.125115 C.3        1 UNL1     0.0661
     43 C         1.836454   -6.605452   9.033695 C.2        1 UNL1     0.2131
     44 O         1.785304   -6.939976   10.203402 O.2        1 UNL1     -0.2851
     45 O         -0.196583   -8.485113   9.479248 O.3        1 UNL1     -0.5056
     46 O         -0.108653   -4.880237   4.068683 O.2        1 UNL1     -0.2836
     47 C         2.587229   -5.318108   0.482223 C.3        1 UNL1     -0.0566
     48 O         2.712699   -2.473245   0.330271 O.3        1 UNL1     -0.3909
     49 C         0.105519   -0.693149   0.795003 C.3        1 UNL1     -0.0577
     50 O         -1.505933   -3.813209   -0.022417 O.3        1 UNL1     -0.3910
     51 O         -4.208127   -3.349068   0.757051 O.3        1 UNL1     -0.3753
     52 C         -1.996148   -1.224962   2.92486 C.3        1 UNL1     -0.0564
     53 O         -2.712948   0.735379   0.403821 O.3        1 UNL1     -0.4608
     54 C         -2.951028   1.601051   -0.631486 C.2        1 UNL1     0.3042
     55 O         -2.141239   2.014973   -1.460189 O.2        1 UNL1     -0.2512
     56 C         -4.390512   2.013582   -0.751555 C.3        1 UNL1     0.0332
     57 C         -3.764052   -2.258087   -1.51384 C.3        1 UNL1     -0.0567
     58 C         -3.010991   -4.585875   5.600631 C.3        1 UNL1     0.0210
     59 C         -5.287682   -4.280607   0.808647 C.3        1 UNL1     0.0372
     60 C         -3.185354   -3.761153   2.805699 C.2        1 UNL1     -0.0208
     61 C         -2.945485   -5.04986   2.559845 C.2        1 UNL1     0.0882
     62 H         1.401216   -4.813123   2.191809 H        1 UNL1     0.0365
     63 H         2.351386   -5.82286   3.691087 H        1 UNL1     0.0576
     64 H         5.385523   -5.285523   3.645754 H        1 UNL1     0.0615
     65 H         3.536946   -6.879959   5.594701 H        1 UNL1     0.0622
     66 H         -4.834571   -2.529798   2.515896 H        1 UNL1     0.0645
     67 H         -3.875112   -0.642364   2.384608 H        1 UNL1     0.0362
     68 H         -4.148183   -0.593119   0.207687 H        1 UNL1     0.0741
     69 H         -2.217667   -0.948302   -1.5737 H        1 UNL1     0.0359
     70 H         -0.889343   -2.746746   -1.599489 H        1 UNL1     0.0600
     71 H         0.851335   -1.730411   -0.798356 H        1 UNL1     0.0348
     72 H         0.949628   -3.710443   0.616514 H        1 UNL1     0.0602
     73 H         -2.964257   -3.353003   3.76057 H        1 UNL1     0.0628
     74 H         -3.08921   -5.530018   1.591327 H        1 UNL1     0.1022
     75 H         7.564096   -6.885269   6.336248 H        1 UNL1     0.0279
     76 H         7.144573   -5.535404   7.313573 H        1 UNL1     0.0279
     77 H         7.035937   -7.233412   7.930228 H        1 UNL1     0.0279
     78 H         4.883363   -5.42711   8.694563 H        1 UNL1     0.1553
     79 H         4.682646   -4.034288   7.299579 H        1 UNL1     0.1484
     80 H         2.180998   -1.355747   6.296249 H        1 UNL1     0.0317
     81 H         1.955776   -2.388236   7.700943 H        1 UNL1     0.0317
     82 H         4.395839   -2.249047   8.267002 H        1 UNL1     0.0428
     83 H         3.630767   -0.677757   8.180879 H        1 UNL1     0.0428
     84 H         5.887108   -1.885693   4.781915 H        1 UNL1     0.0428
     85 H         5.853411   -2.988329   6.113148 H        1 UNL1     0.0428
     86 H         4.306695   -3.461532   4.213517 H        1 UNL1     0.0317
     87 H         3.473973   -1.986296   4.394082 H        1 UNL1     0.0317
     88 H         6.049275   0.546924   6.346541 H        1 UNL1     0.0429
     89 H         5.746177   0.060463   8.016188 H        1 UNL1     0.0429
     90 H         7.102641   -2.11744   7.370653 H        1 UNL1     0.0308
     91 H         7.931271   -2.275453   5.247509 H        1 UNL1     0.0233
     92 H         7.167277   -0.718835   4.836719 H        1 UNL1     0.0233
     93 H         8.811146   -0.763505   5.436973 H        1 UNL1     0.0233
     94 H         9.30274   -0.751486   7.621488 H        1 UNL1     0.0233
     95 H         8.21091   0.623178   7.85069 H        1 UNL1     0.0233
     96 H         8.122767   -0.773896   8.948143 H        1 UNL1     0.0233
     97 H         -3.576592   -7.89268   7.907458 H        1 UNL1     0.0280
     98 H         -2.922656   -9.347234   7.204728 H        1 UNL1     0.0280
     99 H         -2.602526   -8.971005   8.923943 H        1 UNL1     0.0280
     100 H         0.630232   -8.928188   9.554636 H        1 UNL1     0.2922
     101 H         1.672432   -5.852491   0.226804 H        1 UNL1     0.0236
     102 H         3.448911   -5.982943   0.532036 H        1 UNL1     0.0236
     103 H         2.783612   -4.668186   -0.386816 H        1 UNL1     0.0236
     104 H         2.420617   -1.696526   -0.185836 H        1 UNL1     0.2098
     105 H         -0.789937   -0.634486   1.408622 H        1 UNL1     0.0234
     106 H         0.967574   -0.320499   1.348103 H        1 UNL1     0.0234
     107 H         0.0   0.0   0.0 H        1 UNL1     0.0234
     108 H         -1.136805   -4.487313   -0.624991 H        1 UNL1     0.2098
     109 H         -1.39742   -2.145063   2.976334 H        1 UNL1     0.0234
     110 H         -1.338676   -0.370241   2.732696 H        1 UNL1     0.0234
     111 H         -2.365109   -1.05298   3.94478 H        1 UNL1     0.0234
     112 H         -4.515143   2.685081   -1.606483 H        1 UNL1     0.0342
     113 H         -5.057304   1.15602   -0.827847 H        1 UNL1     0.0342
     114 H         -4.665067   2.569027   0.155785 H        1 UNL1     0.0342
     115 H         -3.464691   -3.110956   -2.138489 H        1 UNL1     0.0234
     116 H         -4.552745   -2.603579   -0.842536 H        1 UNL1     0.0234
     117 H         -4.223685   -1.594029   -2.265974 H        1 UNL1     0.0234
     118 H         -4.041402   -4.422204   5.239421 H        1 UNL1     0.0309
     119 H         -3.033293   -4.756571   6.681634 H        1 UNL1     0.0309
     120 H         -2.535141   -3.609553   5.457563 H        1 UNL1     0.0309
     121 H         -5.148201   -4.992284   -0.004628 H        1 UNL1     0.0524
     122 H         -5.302103   -4.85249   1.751398 H        1 UNL1     0.0524
     123 H         -6.23621   -3.763316   0.695515 H        1 UNL1     0.0524
@<TRIPOS>BOND
     1     1     2    1
     2     1    42    1
     3     2     3    2
     4     3     4    1
     5     4     5    2
     6     5     7    1
     7     6    75    1
     8     6    76    1
     9     6    77    1
    10     7     9   am
    11     9    10    1
    12    10    11    2
    13    10    43    1
    14    11    14    1
    15    11    15    1
    16    12    13   ar
    17    12    27   ar
    18    12    43    1
    19    13    14    1
    20    13    30   ar
    21    14    17    2
    22    15    16    1
    23    16    17    1
    24    16    18    1
    25    16    22    1
    26    18    19    1
    27    19    20    1
    28    20    21    1
    29    21    22    1
    30    23    24    1
    31    23    88    1
    32    23    89    1
    33    24    25    1
    34    24    26    1
    35    24    90    1
    36    25    91    1
    37    25    92    1
    38    25    93    1
    39    26    94    1
    40    26    95    1
    41    26    96    1
    42    27    28   ar
    43    28    29   ar
    44    29    30   ar
    45    29    31    1
    46    30    33    1
    47    31    32    1
    48    32    33    1
    49    32    35    1
    50    34    97    1
    51    34    98    1
    52    34    99    1
    53    35    61    1
    54    36    37    1
    55    36    60    1
    56    37    38    1
    57    38    39    1
    58    39    40    1
    59    40    41    1
    60    41    42    1
    61    45   100    1
    62    47   101    1
    63    47   102    1
    64    47   103    1
    65    48   104    1
    66    49   105    1
    67    49   106    1
    68    49   107    1
    69    50   108    1
    70    51    59    1
    71    52   109    1
    72    52   110    1
    73    52   111    1
    74    53    54    1
    75    54    55    2
    76    54    56    1
    77    56   112    1
    78    56   113    1
    79    56   114    1
    80    57   115    1
    81    57   116    1
    82    57   117    1
    83    58   118    1
    84    58   119    1
    85    58   120    1
    86    59   121    1
    87    59   122    1
    88    59   123    1
    89    60    61    2
    90     1    47    1
    91     1    62    1
    92     2    63    1
    93     3    64    1
    94     4    65    1
    95     5     6    1
    96     7     8    2
    97     9    78    1
    98    15    79    1
    99    18    80    1
   100    18    81    1
   101    19    82    1
   102    19    83    1
   103    20    23    1
   104    21    84    1
   105    21    85    1
   106    22    86    1
   107    22    87    1
   108    27    45    1
   109    28    34    1
   110    32    58    1
   111    33    46    2
   112    36    51    1
   113    36    66    1
   114    37    52    1
   115    37    67    1
   116    38    53    1
   117    38    68    1
   118    42    48    1
   119    42    72    1
   120    43    44    2
   121    60    73    1
   122    61    74    1
   123    39    69    1
   124    39    57    1
   125    40    70    1
   126    40    50    1
   127    41    71    1
   128    41    49    1
