@<TRIPOS>MOLECULE
*****
 123 128 0 0 0
SMALL
GASTEIGER

@<TRIPOS>ATOM
     1 C         5.178874   -1.526821   -0.266462 C.3        1 UNL1     0.0009
     2 C         6.410838   -2.424541   -1.32164 C.2        1 UNL1     -0.0787
     3 C         7.267615   -3.567925   -1.555417 C.2        1 UNL1     -0.0649
     4 C         8.187499   -3.914385   -2.933871 C.2        1 UNL1     -0.0542
     5 C         8.851514   -4.933154   -3.660694 C.2        1 UNL1     0.0115
     6 C         9.32692   -6.411032   -3.604216 C.3        1 UNL1     -0.0348
     7 C         9.222394   -4.673009   -5.200747 C.2        1 UNL1     0.2441
     8 O         10.351098   -4.384189   -5.573755 O.2        1 UNL1     -0.2702
     9 N         8.227786   -5.053418   -6.118458 N.am        1 UNL1     -0.2772
     10 C         7.344684   -4.018788   -6.325809 C.2        1 UNL1     0.1049
     11 C         6.379682   -3.889557   -5.433456 C.2        1 UNL1     0.0801
     12 C         7.240118   -1.575019   -6.849632 C.ar        1 UNL1     0.0753
     13 C         6.352565   -1.453643   -5.733333 C.ar        1 UNL1     0.0305
     14 C         5.791093   -2.628803   -5.070913 C.2        1 UNL1     0.0924
     15 N         5.984737   -4.728642   -4.460583 N.pl3        1 UNL1     -0.3170
     16 C         4.781568   -4.193664   -3.880551 C.3        1 UNL1     0.1275
     17 N         4.887182   -2.703963   -4.098173 N.2        1 UNL1     -0.2557
     18 C         3.615045   -4.665979   -4.743015 C.3        1 UNL1     0.0016
     19 C         3.652479   -6.183817   -4.822732 C.3        1 UNL1     0.0026
     20 N         3.559904   -6.725489   -3.47401 N.3        1 UNL1     -0.3018
     21 C         4.605575   -6.278574   -2.551401 C.3        1 UNL1     0.0026
     22 C         4.546769   -4.751565   -2.482995 C.3        1 UNL1     0.0016
     23 C         3.286806   -8.148765   -3.455421 C.3        1 UNL1     0.0012
     24 C         3.362398   -8.73031   -4.875931 C.3        1 UNL1     -0.0339
     25 C         2.160291   -9.640946   -5.175495 C.3        1 UNL1     -0.0615
     26 C         3.480573   -7.60807   -5.892491 C.3        1 UNL1     -0.0615
     27 C         7.675209   -0.453072   -7.551096 C.ar        1 UNL1     0.1347
     28 C         7.261014   0.833484   -7.255687 C.ar        1 UNL1     0.0342
     29 C         6.426083   0.933358   -6.122515 C.ar        1 UNL1     0.1435
     30 C         6.011011   -0.178225   -5.388131 C.ar        1 UNL1     0.0774
     31 O         5.850657   2.104301   -5.772109 O.3        1 UNL1     -0.4436
     32 C         4.755169   1.730275   -4.92306 C.3        1 UNL1     0.3143
     33 C         5.122566   0.363646   -4.381251 C.2        1 UNL1     0.2504
     34 C         7.482823   2.049499   -8.111378 C.3        1 UNL1     -0.0327
     35 O         4.751229   2.632982   -3.810245 O.2        1 UNL1     -0.4528
     36 C         1.125712   2.93376   -2.727082 C.3        1 UNL1     0.0854
     37 C         0.122184   1.80201   -2.28032 C.3        1 UNL1     0.0236
     38 C         -0.552851   2.026091   -0.843011 C.3        1 UNL1     0.1131
     39 C         0.356969   2.350169   0.409774 C.3        1 UNL1     0.0200
     40 C         1.775932   1.510681   0.663235 C.3        1 UNL1     0.0661
     41 C         1.949791   -0.17659   0.640883 C.3        1 UNL1     0.0091
     42 C         3.369397   -1.219954   0.129498 C.3        1 UNL1     0.0661
     43 C         7.611145   -2.942276   -7.291455 C.2        1 UNL1     0.2131
     44 O         8.012727   -3.201954   -8.411293 O.2        1 UNL1     -0.2851
     45 O         8.574275   -0.65438   -8.596367 O.3        1 UNL1     -0.5056
     46 O         4.777458   -0.152587   -3.341897 O.2        1 UNL1     -0.2836
     47 C         5.882235   -0.895447   0.965055 C.3        1 UNL1     -0.0566
     48 O         3.315942   -2.082805   1.334383 O.3        1 UNL1     -0.3909
     49 C         0.709776   -0.786851   0.02652 C.3        1 UNL1     -0.0577
     50 O         2.847394   2.116063   -0.031894 O.3        1 UNL1     -0.3910
     51 O         1.438008   3.900999   -1.750173 O.3        1 UNL1     -0.3753
     52 C         0.580702   0.3904   -2.772326 C.3        1 UNL1     -0.0564
     53 O         -1.74288   1.146053   -0.594636 O.3        1 UNL1     -0.4608
     54 C         -2.070905   0.572506   0.605936 C.2        1 UNL1     0.3042
     55 O         -2.806615   -0.395384   0.795035 O.2        1 UNL1     -0.2512
     56 C         -1.381959   1.203762   1.782194 C.3        1 UNL1     0.0332
     57 C         0.390298   3.939806   0.583319 C.3        1 UNL1     -0.0567
     58 C         3.519142   1.58708   -5.841353 C.3        1 UNL1     0.0210
     59 C         2.415731   3.493441   -0.794234 C.3        1 UNL1     0.0372
     60 C         2.419774   2.445617   -3.276881 C.2        1 UNL1     -0.0208
     61 C         3.667756   2.852568   -3.040924 C.2        1 UNL1     0.0882
     62 H         5.123733   -0.742865   -1.03137 H        1 UNL1     0.0365
     63 H         6.568854   -1.693216   -2.117042 H        1 UNL1     0.0576
     64 H         7.266   -4.43086   -0.885754 H        1 UNL1     0.0615
     65 H         8.189872   -2.972476   -3.489105 H        1 UNL1     0.0622
     66 H         0.617079   3.441038   -3.558952 H        1 UNL1     0.0645
     67 H         -0.744084   1.931305   -2.952199 H        1 UNL1     0.0362
     68 H         -1.112142   2.95236   -1.044857 H        1 UNL1     0.0741
     69 H         -0.205001   2.143478   1.310815 H        1 UNL1     0.0359
     70 H         1.958662   1.761432   1.725682 H        1 UNL1     0.0600
     71 H         1.793304   -0.40126   1.714192 H        1 UNL1     0.0348
     72 H         3.78213   -0.218651   0.32018 H        1 UNL1     0.0602
     73 H         2.228202   1.740883   -4.047529 H        1 UNL1     0.0628
     74 H         3.954218   3.526468   -2.232818 H        1 UNL1     0.1022
     75 H         9.890527   -6.605719   -2.660035 H        1 UNL1     0.0279
     76 H         8.548584   -7.170177   -3.573203 H        1 UNL1     0.0279
     77 H         10.088847   -6.641957   -4.363058 H        1 UNL1     0.0279
     78 H         7.698243   -5.837639   -5.74341 H        1 UNL1     0.1553
     79 H         6.207904   -5.706835   -4.444178 H        1 UNL1     0.1484
     80 H         2.676481   -4.311181   -4.300316 H        1 UNL1     0.0317
     81 H         3.67094   -4.233392   -5.747702 H        1 UNL1     0.0317
     82 H         4.559066   -6.542529   -5.331984 H        1 UNL1     0.0428
     83 H         2.813398   -6.49919   -5.443646 H        1 UNL1     0.0428
     84 H         4.467888   -6.635812   -1.526104 H        1 UNL1     0.0428
     85 H         5.594486   -6.662824   -2.837275 H        1 UNL1     0.0428
     86 H         5.230769   -4.470072   -1.703961 H        1 UNL1     0.0317
     87 H         3.572733   -4.431159   -2.093519 H        1 UNL1     0.0317
     88 H         4.052593   -8.635423   -2.837336 H        1 UNL1     0.0429
     89 H         2.315359   -8.36237   -2.991269 H        1 UNL1     0.0429
     90 H         4.280909   -9.321048   -4.9738 H        1 UNL1     0.0308
     91 H         1.446229   -9.150106   -5.843547 H        1 UNL1     0.0233
     92 H         2.489623   -10.578689   -5.629132 H        1 UNL1     0.0233
     93 H         1.609232   -9.917057   -4.268339 H        1 UNL1     0.0233
     94 H         3.56652   -6.643037   -5.381452 H        1 UNL1     0.0233
     95 H         4.378218   -7.748315   -6.5012 H        1 UNL1     0.0233
     96 H         2.608794   -7.573493   -6.551864 H        1 UNL1     0.0233
     97 H         6.557066   2.418705   -8.542529 H        1 UNL1     0.0280
     98 H         7.902943   2.887047   -7.539304 H        1 UNL1     0.0280
     99 H         8.172341   1.800668   -8.93463 H        1 UNL1     0.0280
     100 H         8.450944   -1.458473   -9.069491 H        1 UNL1     0.2922
     101 H         6.923305   -0.681404   0.724195 H        1 UNL1     0.0236
     102 H         5.786782   -1.497061   1.868345 H        1 UNL1     0.0236
     103 H         5.44988   0.083255   1.232268 H        1 UNL1     0.0236
     104 H         3.157359   -2.999147   1.03415 H        1 UNL1     0.2098
     105 H         0.843601   -1.148607   -0.989863 H        1 UNL1     0.0234
     106 H         0.226259   -1.548558   0.638027 H        1 UNL1     0.0234
     107 H         -0.0   0.0   0.0 H        1 UNL1     0.0234
     108 H         2.508541   2.38924   -0.906149 H        1 UNL1     0.2098
     109 H         -0.257412   -0.209956   -3.152918 H        1 UNL1     0.0234
     110 H         1.372771   0.434181   -3.52761 H        1 UNL1     0.0234
     111 H         1.022237   -0.198537   -1.957375 H        1 UNL1     0.0234
     112 H         -0.603165   1.88886   1.433672 H        1 UNL1     0.0342
     113 H         -2.082642   1.712266   2.442732 H        1 UNL1     0.0342
     114 H         -0.895254   0.407797   2.362472 H        1 UNL1     0.0342
     115 H         -0.397645   4.293076   1.262682 H        1 UNL1     0.0234
     116 H         1.341578   4.325984   0.954778 H        1 UNL1     0.0234
     117 H         0.137257   4.488552   -0.340147 H        1 UNL1     0.0234
     118 H         3.433365   2.425305   -6.554814 H        1 UNL1     0.0309
     119 H         3.502036   0.642703   -6.394582 H        1 UNL1     0.0309
     120 H         2.575737   1.630414   -5.28618 H        1 UNL1     0.0309
     121 H         3.397928   3.696859   -1.219989 H        1 UNL1     0.0524
     122 H         2.339373   4.058907   0.149405 H        1 UNL1     0.0524
     123 H         2.312475   2.433572   -0.579501 H        1 UNL1     0.0524
@<TRIPOS>BOND
     1     1     2    1
     2     1    42    1
     3     2     3    2
     4     3     4    1
     5     4     5    2
     6     5     7    1
     7     6    75    1
     8     6    76    1
     9     6    77    1
    10     7     9   am
    11     9    10    1
    12    10    11    2
    13    10    43    1
    14    11    14    1
    15    11    15    1
    16    12    13   ar
    17    12    27   ar
    18    12    43    1
    19    13    14    1
    20    13    30   ar
    21    14    17    2
    22    15    16    1
    23    16    17    1
    24    16    18    1
    25    16    22    1
    26    18    19    1
    27    19    20    1
    28    20    21    1
    29    21    22    1
    30    23    24    1
    31    23    88    1
    32    23    89    1
    33    24    25    1
    34    24    26    1
    35    24    90    1
    36    25    91    1
    37    25    92    1
    38    25    93    1
    39    26    94    1
    40    26    95    1
    41    26    96    1
    42    27    28   ar
    43    28    29   ar
    44    29    30   ar
    45    29    31    1
    46    30    33    1
    47    31    32    1
    48    32    33    1
    49    32    35    1
    50    34    97    1
    51    34    98    1
    52    34    99    1
    53    35    61    1
    54    36    37    1
    55    36    60    1
    56    37    38    1
    57    38    39    1
    58    39    40    1
    59    40    41    1
    60    41    42    1
    61    45   100    1
    62    47   101    1
    63    47   102    1
    64    47   103    1
    65    48   104    1
    66    49   105    1
    67    49   106    1
    68    49   107    1
    69    50   108    1
    70    51    59    1
    71    52   109    1
    72    52   110    1
    73    52   111    1
    74    53    54    1
    75    54    55    2
    76    54    56    1
    77    56   112    1
    78    56   113    1
    79    56   114    1
    80    57   115    1
    81    57   116    1
    82    57   117    1
    83    58   118    1
    84    58   119    1
    85    58   120    1
    86    59   121    1
    87    59   122    1
    88    59   123    1
    89    60    61    2
    90     1    47    1
    91     1    62    1
    92     2    63    1
    93     3    64    1
    94     4    65    1
    95     5     6    1
    96     7     8    2
    97     9    78    1
    98    15    79    1
    99    18    80    1
   100    18    81    1
   101    19    82    1
   102    19    83    1
   103    20    23    1
   104    21    84    1
   105    21    85    1
   106    22    86    1
   107    22    87    1
   108    27    45    1
   109    28    34    1
   110    32    58    1
   111    33    46    2
   112    36    51    1
   113    36    66    1
   114    37    52    1
   115    37    67    1
   116    38    53    1
   117    38    68    1
   118    42    48    1
   119    42    72    1
   120    43    44    2
   121    60    73    1
   122    61    74    1
   123    39    69    1
   124    39    57    1
   125    40    70    1
   126    40    50    1
   127    41    71    1
   128    41    49    1
