@<TRIPOS>MOLECULE
*****
 123 128 0 0 0
SMALL
GASTEIGER

@<TRIPOS>ATOM
     1 C         1.742041   4.263205   1.605462 C.3        1 UNL1     0.0009
     2 C         3.330688   5.217604   1.654034 C.2        1 UNL1     -0.0787
     3 C         4.622887   5.476054   2.253594 C.2        1 UNL1     -0.0649
     4 C         5.828212   6.534584   1.712242 C.2        1 UNL1     -0.0542
     5 C         7.206343   6.856207   1.778506 C.2        1 UNL1     0.0115
     6 C         8.533619   6.550205   2.525516 C.3        1 UNL1     -0.0348
     7 C         7.840479   7.795246   0.641374 C.2        1 UNL1     0.2441
     8 O         8.082247   8.981588   0.816494 O.2        1 UNL1     -0.2702
     9 N         8.340635   7.108269   -0.478473 N.am        1 UNL1     -0.2772
     10 C         7.347228   6.925528   -1.412855 C.2        1 UNL1     0.1049
     11 C         6.547839   5.892452   -1.218039 C.2        1 UNL1     0.0801
     12 C         5.543642   8.136331   -2.653164 C.ar        1 UNL1     0.0753
     13 C         4.662014   7.088621   -2.236459 C.ar        1 UNL1     0.0305
     14 C         5.166424   5.865667   -1.615973 C.2        1 UNL1     0.0924
     15 N         6.665514   4.857209   -0.36895 N.pl3        1 UNL1     -0.3170
     16 C         5.618051   3.918646   -0.672556 C.3        1 UNL1     0.1275
     17 N         4.513926   4.7622   -1.261663 N.2        1 UNL1     -0.2557
     18 C         6.121981   3.0295   -1.80533 C.3        1 UNL1     0.0016
     19 C         7.432657   2.390082   -1.375375 C.3        1 UNL1     0.0026
     20 N         7.199886   1.614793   -0.164684 N.3        1 UNL1     -0.3018
     21 C         6.655613   2.372704   0.963902 C.3        1 UNL1     0.0026
     22 C         5.337158   3.002515   0.511231 C.3        1 UNL1     0.0016
     23 C         8.301486   0.730323   0.1591 C.3        1 UNL1     0.0012
     24 C         7.805413   -0.716926   0.304485 C.3        1 UNL1     -0.0339
     25 C         6.351477   -0.76572   0.802227 C.3        1 UNL1     -0.0615
     26 C         7.971342   -1.458886   -1.010332 C.3        1 UNL1     -0.0615
     27 C         5.068968   9.243853   -3.351877 C.ar        1 UNL1     0.1347
     28 C         3.745196   9.3949   -3.724518 C.ar        1 UNL1     0.0342
     29 C         2.88718   8.375004   -3.26107 C.ar        1 UNL1     0.1435
     30 C         3.342482   7.277727   -2.529016 C.ar        1 UNL1     0.0774
     31 O         1.589849   8.321875   -3.634053 O.3        1 UNL1     -0.4436
     32 C         1.195317   6.96479   -3.381986 C.3        1 UNL1     0.3143
     33 C         2.164471   6.458876   -2.332698 C.2        1 UNL1     0.2504
     34 C         3.210977   10.421533   -4.684067 C.3        1 UNL1     -0.0327
     35 O         -0.099483   7.004375   -2.769468 O.2        1 UNL1     -0.4528
     36 C         -1.841211   3.796132   -3.809489 C.3        1 UNL1     0.0854
     37 C         -1.384996   2.301212   -3.598293 C.3        1 UNL1     0.0236
     38 C         -2.452294   1.368407   -2.848296 C.3        1 UNL1     0.1131
     39 C         -3.091732   1.847829   -1.483179 C.3        1 UNL1     0.0200
     40 C         -2.140751   2.545898   -0.303868 C.3        1 UNL1     0.0661
     41 C         -0.680998   1.921844   0.293866 C.3        1 UNL1     0.0091
     42 C         0.813062   2.782254   0.920669 C.3        1 UNL1     0.0661
     43 C         6.994523   7.961591   -2.394957 C.2        1 UNL1     0.2131
     44 O         7.863791   8.546922   -3.015037 O.2        1 UNL1     -0.2851
     45 O         5.985425   10.240624   -3.680498 O.3        1 UNL1     -0.5056
     46 O         1.994529   5.590684   -1.506129 O.2        1 UNL1     -0.2836
     47 C         0.802695   4.720848   2.75358 C.3        1 UNL1     -0.0566
     48 O         0.927911   1.939746   2.13562 O.3        1 UNL1     -0.3909
     49 C         -0.20304   0.826015   -0.63253 C.3        1 UNL1     -0.0577
     50 O         -2.020081   3.938023   -0.516356 O.3        1 UNL1     -0.3910
     51 O         -3.03932   4.171062   -3.16809 O.3        1 UNL1     -0.3753
     52 C         0.150493   2.194892   -3.322756 C.3        1 UNL1     -0.0564
     53 O         -2.158005   -0.098233   -2.969484 O.3        1 UNL1     -0.4608
     54 C         -2.351792   -1.032053   -1.985433 C.2        1 UNL1     0.3042
     55 O         -2.944993   -2.105742   -2.081058 O.2        1 UNL1     -0.2512
     56 C         -1.697123   -0.675949   -0.68109 C.3        1 UNL1     0.0332
     57 C         -4.489113   2.547131   -1.824464 C.3        1 UNL1     -0.0567
     58 C         1.434441   6.188171   -4.697741 C.3        1 UNL1     0.0210
     59 C         -3.744477   5.242033   -3.793903 C.3        1 UNL1     0.0372
     60 C         -0.823305   4.820927   -3.450569 C.2        1 UNL1     -0.0208
     61 C         -0.945381   5.956339   -2.761598 C.2        1 UNL1     0.0882
     62 H         1.449129   4.833167   0.715486 H        1 UNL1     0.0365
     63 H         3.153028   5.949063   0.862911 H        1 UNL1     0.0576
     64 H         5.012885   4.854915   3.063036 H        1 UNL1     0.0615
     65 H         5.316894   7.154393   0.970707 H        1 UNL1     0.0622
     66 H         -1.991857   3.888102   -4.894336 H        1 UNL1     0.0645
     67 H         -1.394508   1.871804   -4.615189 H        1 UNL1     0.0362
     68 H         -3.272309   1.400649   -3.58182 H        1 UNL1     0.0741
     69 H         -3.509068   0.989412   -0.973906 H        1 UNL1     0.0359
     70 H         -2.819399   2.456655   0.565921 H        1 UNL1     0.0600
     71 H         -1.059808   1.331451   1.151127 H        1 UNL1     0.0348
     72 H         -0.00283   3.518059   0.967862 H        1 UNL1     0.0602
     73 H         0.087936   4.597019   -3.947314 H        1 UNL1     0.0628
     74 H         -1.824077   6.231697   -2.177381 H        1 UNL1     0.1022
     75 H         9.349746   6.323484   1.797801 H        1 UNL1     0.0279
     76 H         8.959827   7.362558   3.109894 H        1 UNL1     0.0279
     77 H         8.491149   5.614537   3.102077 H        1 UNL1     0.0279
     78 H         8.668832   6.187048   -0.19613 H        1 UNL1     0.1553
     79 H         7.529966   4.58635   0.062664 H        1 UNL1     0.1484
     80 H         5.36163   2.271905   -2.030458 H        1 UNL1     0.0317
     81 H         6.267726   3.609624   -2.722862 H        1 UNL1     0.0317
     82 H         8.220263   3.14178   -1.218727 H        1 UNL1     0.0428
     83 H         7.775145   1.761886   -2.198249 H        1 UNL1     0.0428
     84 H         6.415443   1.752957   1.833409 H        1 UNL1     0.0428
     85 H         7.377252   3.105854   1.349966 H        1 UNL1     0.0428
     86 H         4.90445   3.434688   1.394395 H        1 UNL1     0.0317
     87 H         4.621963   2.217704   0.236163 H        1 UNL1     0.0317
     88 H         9.025394   0.770489   -0.665301 H        1 UNL1     0.0429
     89 H         8.826255   1.06187   1.064345 H        1 UNL1     0.0429
     90 H         8.439856   -1.243173   1.027506 H        1 UNL1     0.0308
     91 H         6.015287   0.217371   1.145169 H        1 UNL1     0.0233
     92 H         5.684189   -1.117337   0.011846 H        1 UNL1     0.0233
     93 H         6.220893   -1.457725   1.643008 H        1 UNL1     0.0233
     94 H         6.99265   -1.641367   -1.467167 H        1 UNL1     0.0233
     95 H         8.561647   -0.857118   -1.707022 H        1 UNL1     0.0233
     96 H         8.469839   -2.42139   -0.865231 H        1 UNL1     0.0233
     97 H         2.144338   10.306185   -4.852013 H        1 UNL1     0.0280
     98 H         3.347748   11.44563   -4.312885 H        1 UNL1     0.0280
     99 H         3.726042   10.323675   -5.65372 H        1 UNL1     0.0280
     100 H         5.919904   11.020473   -3.157846 H        1 UNL1     0.2922
     101 H         0.660511   5.800198   2.704151 H        1 UNL1     0.0236
     102 H         1.13971   4.397373   3.73784 H        1 UNL1     0.0236
     103 H         -0.211534   4.300001   2.65149 H        1 UNL1     0.0236
     104 H         0.263289   1.226907   2.064142 H        1 UNL1     0.2098
     105 H         -0.93701   0.508619   -1.368981 H        1 UNL1     0.0234
     106 H         0.754781   1.022418   -1.114123 H        1 UNL1     0.0234
     107 H         0.0   0.0   0.0 H        1 UNL1     0.0234
     108 H         -1.485672   4.298233   0.217417 H        1 UNL1     0.2098
     109 H         0.526006   3.039803   -2.728764 H        1 UNL1     0.0234
     110 H         0.437397   1.253184   -2.842531 H        1 UNL1     0.0234
     111 H         0.730692   2.205853   -4.255062 H        1 UNL1     0.0234
     112 H         -1.801737   -1.504296   0.026188 H        1 UNL1     0.0342
     113 H         -0.65116   -0.401438   -0.809344 H        1 UNL1     0.0342
     114 H         -2.220427   0.193905   -0.260768 H        1 UNL1     0.0342
     115 H         -5.235884   2.373019   -1.037567 H        1 UNL1     0.0234
     116 H         -4.419818   3.625795   -1.97851 H        1 UNL1     0.0234
     117 H         -4.997355   2.10988   -2.701074 H        1 UNL1     0.0234
     118 H         0.490151   5.962685   -5.223555 H        1 UNL1     0.0309
     119 H         2.112232   6.704973   -5.384558 H        1 UNL1     0.0309
     120 H         1.871623   5.198141   -4.527984 H        1 UNL1     0.0309
     121 H         -4.233383   4.840853   -4.681248 H        1 UNL1     0.0524
     122 H         -4.529675   5.662381   -3.143666 H        1 UNL1     0.0524
     123 H         -3.055142   6.034355   -4.071636 H        1 UNL1     0.0524
@<TRIPOS>BOND
     1     1     2    1
     2     1    42    1
     3     2     3    2
     4     3     4    1
     5     4     5    2
     6     5     7    1
     7     6    75    1
     8     6    76    1
     9     6    77    1
    10     7     9   am
    11     9    10    1
    12    10    11    2
    13    10    43    1
    14    11    14    1
    15    11    15    1
    16    12    13   ar
    17    12    27   ar
    18    12    43    1
    19    13    14    1
    20    13    30   ar
    21    14    17    2
    22    15    16    1
    23    16    17    1
    24    16    18    1
    25    16    22    1
    26    18    19    1
    27    19    20    1
    28    20    21    1
    29    21    22    1
    30    23    24    1
    31    23    88    1
    32    23    89    1
    33    24    25    1
    34    24    26    1
    35    24    90    1
    36    25    91    1
    37    25    92    1
    38    25    93    1
    39    26    94    1
    40    26    95    1
    41    26    96    1
    42    27    28   ar
    43    28    29   ar
    44    29    30   ar
    45    29    31    1
    46    30    33    1
    47    31    32    1
    48    32    33    1
    49    32    35    1
    50    34    97    1
    51    34    98    1
    52    34    99    1
    53    35    61    1
    54    36    37    1
    55    36    60    1
    56    37    38    1
    57    38    39    1
    58    39    40    1
    59    40    41    1
    60    41    42    1
    61    45   100    1
    62    47   101    1
    63    47   102    1
    64    47   103    1
    65    48   104    1
    66    49   105    1
    67    49   106    1
    68    49   107    1
    69    50   108    1
    70    51    59    1
    71    52   109    1
    72    52   110    1
    73    52   111    1
    74    53    54    1
    75    54    55    2
    76    54    56    1
    77    56   112    1
    78    56   113    1
    79    56   114    1
    80    57   115    1
    81    57   116    1
    82    57   117    1
    83    58   118    1
    84    58   119    1
    85    58   120    1
    86    59   121    1
    87    59   122    1
    88    59   123    1
    89    60    61    2
    90     1    47    1
    91     1    62    1
    92     2    63    1
    93     3    64    1
    94     4    65    1
    95     5     6    1
    96     7     8    2
    97     9    78    1
    98    15    79    1
    99    18    80    1
   100    18    81    1
   101    19    82    1
   102    19    83    1
   103    20    23    1
   104    21    84    1
   105    21    85    1
   106    22    86    1
   107    22    87    1
   108    27    45    1
   109    28    34    1
   110    32    58    1
   111    33    46    2
   112    36    51    1
   113    36    66    1
   114    37    52    1
   115    37    67    1
   116    38    53    1
   117    38    68    1
   118    42    48    1
   119    42    72    1
   120    43    44    2
   121    60    73    1
   122    61    74    1
   123    39    69    1
   124    39    57    1
   125    40    70    1
   126    40    50    1
   127    41    71    1
   128    41    49    1
