@<TRIPOS>MOLECULE
*****
 123 128 0 0 0
SMALL
GASTEIGER

@<TRIPOS>ATOM
     1 C         -0.775735   4.900506   1.165929 C.3        1 UNL1     0.0009
     2 C         0.016016   6.367069   1.97794 C.2        1 UNL1     -0.0787
     3 C         0.341812   7.117719   3.172271 C.2        1 UNL1     -0.0649
     4 C         1.309635   8.500934   3.300293 C.2        1 UNL1     -0.0542
     5 C         2.076041   9.304337   4.180205 C.2        1 UNL1     0.0115
     6 C         2.422914   9.553438   5.673842 C.3        1 UNL1     -0.0348
     7 C         3.147739   10.327839   3.563038 C.2        1 UNL1     0.2441
     8 O         2.942387   11.530179   3.469582 O.2        1 UNL1     -0.2702
     9 N         4.434581   9.792913   3.378526 N.am        1 UNL1     -0.2772
     10 C         4.534429   9.197695   2.141971 C.2        1 UNL1     0.1049
     11 C         4.078927   7.961261   2.052687 C.2        1 UNL1     0.0801
     12 C         4.077962   9.582291   -0.287238 C.ar        1 UNL1     0.0753
     13 C         3.407279   8.317873   -0.280991 C.ar        1 UNL1     0.0305
     14 C         3.50116   7.407567   0.858122 C.2        1 UNL1     0.0924
     15 N         3.719657   7.101021   3.020902 N.pl3        1 UNL1     -0.3170
     16 C         3.459938   5.827732   2.403216 C.3        1 UNL1     0.1275
     17 N         3.033748   6.170107   0.996494 N.2        1 UNL1     -0.2557
     18 C         4.797796   5.105402   2.276417 C.3        1 UNL1     0.0016
     19 C         5.435003   5.016573   3.653975 C.3        1 UNL1     0.0026
     20 N         4.532504   4.295954   4.541237 N.3        1 UNL1     -0.3018
     21 C         3.197367   4.881403   4.679173 C.3        1 UNL1     0.0026
     22 C         2.574013   4.956902   3.284317 C.3        1 UNL1     0.0016
     23 C         5.163006   3.896169   5.783526 C.3        1 UNL1     0.0012
     24 C         4.176725   3.106416   6.658337 C.3        1 UNL1     -0.0339
     25 C         4.314393   3.484084   8.14241 C.3        1 UNL1     -0.0615
     26 C         2.757318   3.312018   6.158544 C.3        1 UNL1     -0.0615
     27 C         4.083658   10.390668   -1.421528 C.ar        1 UNL1     0.1347
     28 C         3.489456   10.024901   -2.616178 C.ar        1 UNL1     0.0342
     29 C         2.793565   8.798149   -2.571697 C.ar        1 UNL1     0.1435
     30 C         2.748669   7.994586   -1.431744 C.ar        1 UNL1     0.0774
     31 O         2.255813   8.252212   -3.684254 O.3        1 UNL1     -0.4436
     32 C         2.077915   6.865527   -3.358171 C.3        1 UNL1     0.3143
     33 C         2.009581   6.81999   -1.845072 C.2        1 UNL1     0.2504
     34 C         3.667499   10.718352   -3.938119 C.3        1 UNL1     -0.0327
     35 O         0.788336   6.475271   -3.84596 O.2        1 UNL1     -0.4528
     36 C         1.073476   2.789696   -4.70812 C.3        1 UNL1     0.0854
     37 C         1.494565   1.580682   -3.786984 C.3        1 UNL1     0.0236
     38 C         0.4347   0.378895   -3.722644 C.3        1 UNL1     0.1131
     39 C         -1.083926   0.687493   -3.405137 C.3        1 UNL1     0.0200
     40 C         -1.492933   1.763259   -2.19771 C.3        1 UNL1     0.0661
     41 C         -0.888956   1.754464   -0.612546 C.3        1 UNL1     0.0091
     42 C         -0.57093   3.139627   0.547447 C.3        1 UNL1     0.0661
     43 C         4.843109   9.964182   0.925596 C.2        1 UNL1     0.2131
     44 O         5.746832   10.780277   0.92203 O.2        1 UNL1     -0.2851
     45 O         4.720599   11.626515   -1.329736 O.3        1 UNL1     -0.5056
     46 O         1.451715   6.009088   -1.140034 O.2        1 UNL1     -0.2836
     47 C         -2.319235   5.064969   1.14268 C.3        1 UNL1     -0.0566
     48 O         -1.242223   2.482937   1.695158 O.3        1 UNL1     -0.3909
     49 C         0.318154   0.845013   -0.555294 C.3        1 UNL1     -0.0577
     50 O         -1.525777   3.085919   -2.694917 O.3        1 UNL1     -0.3910
     51 O         -0.240701   2.748156   -5.21669 O.3        1 UNL1     -0.3753
     52 C         2.287484   2.058052   -2.526689 C.3        1 UNL1     -0.0564
     53 O         0.995283   -0.885716   -3.14055 O.3        1 UNL1     -0.4608
     54 C         0.687603   -2.155708   -3.553324 C.2        1 UNL1     0.3042
     55 O         0.261277   -2.500309   -4.654838 O.2        1 UNL1     -0.2512
     56 C         0.975512   -3.209534   -2.522172 C.3        1 UNL1     0.0332
     57 C         -1.854087   0.806692   -4.801854 C.3        1 UNL1     -0.0567
     58 C         3.361984   6.138972   -3.821654 C.3        1 UNL1     0.0210
     59 C         -1.068186   1.729538   -4.656734 C.3        1 UNL1     0.0372
     60 C         1.256463   4.136249   -4.1011 C.2        1 UNL1     -0.0208
     61 C         0.445627   5.195049   -4.085897 C.2        1 UNL1     0.0882
     62 H         -0.407895   5.261955   0.198065 H        1 UNL1     0.0365
     63 H         0.35236   6.927283   1.103009 H        1 UNL1     0.0576
     64 H         0.105789   6.738323   4.168996 H        1 UNL1     0.0615
     65 H         1.41795   8.839814   2.266411 H        1 UNL1     0.0622
     66 H         1.769512   2.744996   -5.55758 H        1 UNL1     0.0645
     67 H         2.33027   1.107399   -4.33119 H        1 UNL1     0.0362
     68 H         0.453644   0.060336   -4.776059 H        1 UNL1     0.0741
     69 H         -1.564436   -0.226154   -3.08146 H        1 UNL1     0.0359
     70 H         -2.557227   1.4947   -2.055527 H        1 UNL1     0.0600
     71 H         -1.656318   1.128087   -0.116798 H        1 UNL1     0.0348
     72 H         -1.267681   3.530724   -0.20813 H        1 UNL1     0.0602
     73 H         2.250832   4.224142   -3.739501 H        1 UNL1     0.0628
     74 H         -0.603216   5.172864   -4.383676 H        1 UNL1     0.1022
     75 H         1.728031   8.98479   6.337778 H        1 UNL1     0.0279
     76 H         3.3995   9.211082   6.008715 H        1 UNL1     0.0279
     77 H         2.225738   10.588472   5.98932 H        1 UNL1     0.0279
     78 H         4.610449   9.075544   4.078904 H        1 UNL1     0.1553
     79 H         4.000353   7.192938   3.979908 H        1 UNL1     0.1484
     80 H         4.627509   4.109895   1.848941 H        1 UNL1     0.0317
     81 H         5.463663   5.633497   1.585484 H        1 UNL1     0.0317
     82 H         5.674899   6.011719   4.056523 H        1 UNL1     0.0428
     83 H         6.388424   4.499751   3.54025 H        1 UNL1     0.0428
     84 H         2.514834   4.278892   5.286578 H        1 UNL1     0.0428
     85 H         3.227584   5.851354   5.194535 H        1 UNL1     0.0428
     86 H         1.555902   5.263032   3.438344 H        1 UNL1     0.0317
     87 H         2.47501   3.949006   2.863079 H        1 UNL1     0.0317
     88 H         6.013419   3.245573   5.541004 H        1 UNL1     0.0429
     89 H         5.565015   4.763001   6.323679 H        1 UNL1     0.0429
     90 H         4.379886   2.034352   6.550548 H        1 UNL1     0.0308
     91 H         4.849549   4.430624   8.26395 H        1 UNL1     0.0233
     92 H         3.331841   3.564585   8.613282 H        1 UNL1     0.0233
     93 H         4.867352   2.730122   8.715657 H        1 UNL1     0.0233
     94 H         2.075997   2.615634   6.65923 H        1 UNL1     0.0233
     95 H         2.425398   4.329294   6.384243 H        1 UNL1     0.0233
     96 H         2.686651   3.148893   5.079487 H        1 UNL1     0.0233
     97 H         4.411492   10.227772   -4.558631 H        1 UNL1     0.0280
     98 H         2.742105   10.727211   -4.528731 H        1 UNL1     0.0280
     99 H         3.990398   11.758596   -3.76864 H        1 UNL1     0.0280
     100 H         4.648865   12.162132   -2.100184 H        1 UNL1     0.2922
     101 H         -2.794419   4.088082   1.229559 H        1 UNL1     0.0236
     102 H         -2.678289   5.61879   0.275878 H        1 UNL1     0.0236
     103 H         -2.688225   5.634001   2.012301 H        1 UNL1     0.0236
     104 H         -1.323315   1.532077   1.484776 H        1 UNL1     0.2098
     105 H         0.663298   0.495197   -1.524993 H        1 UNL1     0.0234
     106 H         1.154347   1.234155   0.025462 H        1 UNL1     0.0234
     107 H         0.0   0.0   0.0 H        1 UNL1     0.0234
     108 H         -2.097871   3.084179   -3.486418 H        1 UNL1     0.2098
     109 H         2.716355   1.218248   -1.962321 H        1 UNL1     0.0234
     110 H         3.075403   2.78148   -2.762442 H        1 UNL1     0.0234
     111 H         1.639279   2.591666   -1.818853 H        1 UNL1     0.0234
     112 H         0.305347   -4.062695   -2.664798 H        1 UNL1     0.0342
     113 H         2.017819   -3.524456   -2.538402 H        1 UNL1     0.0342
     114 H         0.771909   -2.783515   -1.530095 H        1 UNL1     0.0342
     115 H         -2.822143   1.314699   -4.692382 H        1 UNL1     0.0234
     116 H         -1.292053   1.334162   -5.575122 H        1 UNL1     0.0234
     117 H         -2.16982   -0.166904   -5.214606 H        1 UNL1     0.0234
     118 H         3.136907   5.197753   -4.353117 H        1 UNL1     0.0309
     119 H         4.004082   6.761781   -4.452543 H        1 UNL1     0.0309
     120 H         3.986181   5.812279   -2.982752 H        1 UNL1     0.0309
     121 H         -0.676506   0.767892   -4.987161 H        1 UNL1     0.0524
     122 H         -1.049519   1.734449   -3.554162 H        1 UNL1     0.0524
     123 H         -2.094037   1.851823   -4.992546 H        1 UNL1     0.0524
@<TRIPOS>BOND
     1     1     2    1
     2     1    42    1
     3     2     3    2
     4     3     4    1
     5     4     5    2
     6     5     7    1
     7     6    75    1
     8     6    76    1
     9     6    77    1
    10     7     9   am
    11     9    10    1
    12    10    11    2
    13    10    43    1
    14    11    14    1
    15    11    15    1
    16    12    13   ar
    17    12    27   ar
    18    12    43    1
    19    13    14    1
    20    13    30   ar
    21    14    17    2
    22    15    16    1
    23    16    17    1
    24    16    18    1
    25    16    22    1
    26    18    19    1
    27    19    20    1
    28    20    21    1
    29    21    22    1
    30    23    24    1
    31    23    88    1
    32    23    89    1
    33    24    25    1
    34    24    26    1
    35    24    90    1
    36    25    91    1
    37    25    92    1
    38    25    93    1
    39    26    94    1
    40    26    95    1
    41    26    96    1
    42    27    28   ar
    43    28    29   ar
    44    29    30   ar
    45    29    31    1
    46    30    33    1
    47    31    32    1
    48    32    33    1
    49    32    35    1
    50    34    97    1
    51    34    98    1
    52    34    99    1
    53    35    61    1
    54    36    37    1
    55    36    60    1
    56    37    38    1
    57    38    39    1
    58    39    40    1
    59    40    41    1
    60    41    42    1
    61    45   100    1
    62    47   101    1
    63    47   102    1
    64    47   103    1
    65    48   104    1
    66    49   105    1
    67    49   106    1
    68    49   107    1
    69    50   108    1
    70    51    59    1
    71    52   109    1
    72    52   110    1
    73    52   111    1
    74    53    54    1
    75    54    55    2
    76    54    56    1
    77    56   112    1
    78    56   113    1
    79    56   114    1
    80    57   115    1
    81    57   116    1
    82    57   117    1
    83    58   118    1
    84    58   119    1
    85    58   120    1
    86    59   121    1
    87    59   122    1
    88    59   123    1
    89    60    61    2
    90     1    47    1
    91     1    62    1
    92     2    63    1
    93     3    64    1
    94     4    65    1
    95     5     6    1
    96     7     8    2
    97     9    78    1
    98    15    79    1
    99    18    80    1
   100    18    81    1
   101    19    82    1
   102    19    83    1
   103    20    23    1
   104    21    84    1
   105    21    85    1
   106    22    86    1
   107    22    87    1
   108    27    45    1
   109    28    34    1
   110    32    58    1
   111    33    46    2
   112    36    51    1
   113    36    66    1
   114    37    52    1
   115    37    67    1
   116    38    53    1
   117    38    68    1
   118    42    48    1
   119    42    72    1
   120    43    44    2
   121    60    73    1
   122    61    74    1
   123    39    69    1
   124    39    57    1
   125    40    70    1
   126    40    50    1
   127    41    71    1
   128    41    49    1
