@<TRIPOS>MOLECULE
*****
 123 128 0 0 0
SMALL
GASTEIGER

@<TRIPOS>ATOM
     1 C         -0.377319   0.192196   -5.461895 C.3        1 UNL1     0.0009
     2 C         -0.491199   1.286087   -6.954366 C.2        1 UNL1     -0.0787
     3 C         -1.275849   1.899693   -8.005012 C.2        1 UNL1     -0.0649
     4 C         -0.770892   3.039944   -9.150091 C.2        1 UNL1     -0.0542
     5 C         -1.197043   4.037878   -10.060914 C.2        1 UNL1     0.0115
     6 C         -2.441834   4.6601   -10.751319 C.3        1 UNL1     -0.0348
     7 C         -0.127801   5.109132   -10.59582 C.2        1 UNL1     0.2441
     8 O         0.383004   5.042397   -11.705393 O.2        1 UNL1     -0.2702
     9 N         -0.01337   6.269559   -9.810666 N.am        1 UNL1     -0.2772
     10 C         0.915534   6.08437   -8.812586 C.2        1 UNL1     0.1049
     11 C         0.486685   5.469871   -7.725065 C.2        1 UNL1     0.0801
     12 C         3.246039   5.276093   -8.396932 C.ar        1 UNL1     0.0753
     13 C         2.694744   4.463831   -7.355341 C.ar        1 UNL1     0.0305
     14 C         1.316761   4.634401   -6.900237 C.2        1 UNL1     0.0924
     15 N         -0.76575   5.174773   -7.336669 N.pl3        1 UNL1     -0.3170
     16 C         -0.699612   4.657949   -5.995485 C.3        1 UNL1     0.1275
     17 N         0.676441   4.046542   -5.89359 N.2        1 UNL1     -0.2557
     18 C         -0.702432   5.854644   -5.049115 C.3        1 UNL1     0.0016
     19 C         -1.933682   6.699047   -5.336509 C.3        1 UNL1     0.0026
     20 N         -3.120155   5.876543   -5.144675 N.3        1 UNL1     -0.3018
     21 C         -3.178251   4.667332   -5.968569 C.3        1 UNL1     0.0026
     22 C         -1.934479   3.831894   -5.660398 C.3        1 UNL1     0.0016
     23 C         -4.34328   6.652819   -5.099912 C.3        1 UNL1     0.0012
     24 C         -4.460477   7.545607   -6.345284 C.3        1 UNL1     -0.0339
     25 C         -5.7277   7.220493   -7.15306 C.3        1 UNL1     -0.0615
     26 C         -4.414277   9.009414   -5.942897 C.3        1 UNL1     -0.0615
     27 C         4.592741   5.190997   -8.742291 C.ar        1 UNL1     0.1347
     28 C         5.491023   4.362861   -8.093192 C.ar        1 UNL1     0.0342
     29 C         4.915709   3.537096   -7.104106 C.ar        1 UNL1     0.1435
     30 C         3.561209   3.585419   -6.772121 C.ar        1 UNL1     0.0774
     31 O         5.677576   2.755555   -6.308016 O.3        1 UNL1     -0.4436
     32 C         4.841047   2.463848   -5.178415 C.3        1 UNL1     0.3143
     33 C         3.422313   2.64667   -5.6784 C.2        1 UNL1     0.2504
     34 C         6.987068   4.400295   -8.236542 C.3        1 UNL1     -0.0327
     35 O         5.001338   1.072023   -4.877779 O.2        1 UNL1     -0.4528
     36 C         4.455477   0.746104   -1.1356 C.3        1 UNL1     0.0854
     37 C         3.203639   1.162602   -0.271336 C.3        1 UNL1     0.0236
     38 C         2.578715   -0.012577   0.623185 C.3        1 UNL1     0.1131
     39 C         2.231628   -1.405393   -0.041543 C.3        1 UNL1     0.0200
     40 C         1.473968   -1.467522   -1.526309 C.3        1 UNL1     0.0661
     41 C         0.077519   -0.610608   -1.965896 C.3        1 UNL1     0.0091
     42 C         -0.440143   0.068671   -3.589475 C.3        1 UNL1     0.0661
     43 C         2.356076   6.27645   -9.036862 C.2        1 UNL1     0.2131
     44 O         2.763998   7.261156   -9.625666 O.2        1 UNL1     -0.2851
     45 O         5.039302   5.98325   -9.797921 O.3        1 UNL1     -0.5056
     46 O         2.408579   2.119135   -5.27852 O.2        1 UNL1     -0.2836
     47 C         -0.46687   -1.300398   -5.87918 C.3        1 UNL1     -0.0566
     48 O         -1.816997   -0.475858   -3.506551 O.3        1 UNL1     -0.3909
     49 C         -0.179132   0.465987   -0.935087 C.3        1 UNL1     -0.0577
     50 O         2.420823   -1.418721   -2.574549 O.3        1 UNL1     -0.3910
     51 O         4.761991   -0.629827   -1.152779 O.3        1 UNL1     -0.3753
     52 C         2.308588   2.210018   -1.010763 C.3        1 UNL1     -0.0564
     53 O         1.634132   0.476177   1.682057 O.3        1 UNL1     -0.4608
     54 C         0.484957   -0.157688   2.076446 C.2        1 UNL1     0.3042
     55 O         -0.627523   0.343322   2.235237 O.2        1 UNL1     -0.2512
     56 C         0.650355   -1.638429   2.268179 C.3        1 UNL1     0.0332
     57 C         3.477005   -2.379241   0.201011 C.3        1 UNL1     -0.0567
     58 C         5.14087   3.550614   -4.119842 C.3        1 UNL1     0.0210
     59 C         6.134574   -0.935164   -1.394957 C.3        1 UNL1     0.0372
     60 C         4.41788   1.195231   -2.554062 C.2        1 UNL1     -0.0208
     61 C         4.707581   0.536931   -3.677208 C.2        1 UNL1     0.0882
     62 H         0.69006   0.43358   -5.390144 H        1 UNL1     0.0365
     63 H         0.561034   1.537124   -7.103553 H        1 UNL1     0.0576
     64 H         -2.361795   1.789827   -8.046947 H        1 UNL1     0.0615
     65 H         0.31996   3.013624   -9.080568 H        1 UNL1     0.0622
     66 H         5.299174   1.277753   -0.673463 H        1 UNL1     0.0645
     67 H         3.622107   1.828917   0.502918 H        1 UNL1     0.0362
     68 H         3.432844   -0.211495   1.28833 H        1 UNL1     0.0741
     69 H         1.539656   -1.934443   0.600087 H        1 UNL1     0.0359
     70 H         1.124247   -2.517612   -1.518134 H        1 UNL1     0.0600
     71 H         -0.698055   -1.355299   -1.699668 H        1 UNL1     0.0348
     72 H         0.323904   -0.691338   -3.808412 H        1 UNL1     0.0602
     73 H         4.228362   2.239445   -2.584867 H        1 UNL1     0.0628
     74 H         4.856681   -0.54159   -3.738854 H        1 UNL1     0.1022
     75 H         -2.305658   5.760064   -10.88759 H        1 UNL1     0.0279
     76 H         -2.65432   4.323191   -11.763451 H        1 UNL1     0.0279
     77 H         -3.339672   4.629771   -10.116757 H        1 UNL1     0.0279
     78 H         -0.906132   6.470304   -9.364848 H        1 UNL1     0.1553
     79 H         -1.583837   5.622494   -7.707091 H        1 UNL1     0.1484
     80 H         -0.698163   5.491971   -4.014119 H        1 UNL1     0.0317
     81 H         0.205072   6.454918   -5.174647 H        1 UNL1     0.0317
     82 H         -1.907352   7.12553   -6.350082 H        1 UNL1     0.0428
     83 H         -1.914932   7.54767   -4.652012 H        1 UNL1     0.0428
     84 H         -4.038356   4.027396   -5.748313 H        1 UNL1     0.0428
     85 H         -3.288639   4.904696   -7.03571 H        1 UNL1     0.0428
     86 H         -2.076017   2.900567   -6.176719 H        1 UNL1     0.0317
     87 H         -1.932617   3.538428   -4.60353 H        1 UNL1     0.0317
     88 H         -5.190602   5.954803   -5.089297 H        1 UNL1     0.0429
     89 H         -4.404791   7.247325   -4.179285 H        1 UNL1     0.0429
     90 H         -3.586246   7.383619   -6.986918 H        1 UNL1     0.0308
     91 H         -6.132541   6.241156   -6.880839 H        1 UNL1     0.0233
     92 H         -6.494041   7.982499   -6.992815 H        1 UNL1     0.0233
     93 H         -5.540007   7.198019   -8.233385 H        1 UNL1     0.0233
     94 H         -4.708585   9.642596   -6.786876 H        1 UNL1     0.0233
     95 H         -5.11409   9.193795   -5.123003 H        1 UNL1     0.0233
     96 H         -3.410718   9.303948   -5.623384 H        1 UNL1     0.0233
     97 H         7.480292   3.732408   -7.536622 H        1 UNL1     0.0280
     98 H         7.315113   4.08436   -9.235455 H        1 UNL1     0.0280
     99 H         7.350054   5.424485   -8.051153 H        1 UNL1     0.0280
     100 H         4.364889   6.257325   -10.394304 H        1 UNL1     0.2922
     101 H         0.522125   -1.755613   -5.830964 H        1 UNL1     0.0236
     102 H         -0.937326   -1.446315   -6.850963 H        1 UNL1     0.0236
     103 H         -1.080912   -1.890233   -5.178295 H        1 UNL1     0.0236
     104 H         -1.7598   -1.361423   -3.097316 H        1 UNL1     0.2098
     105 H         0.481348   1.326191   -1.010104 H        1 UNL1     0.0234
     106 H         -1.216963   0.791515   -0.865337 H        1 UNL1     0.0234
     107 H         0.0   0.0   0.0 H        1 UNL1     0.0234
     108 H         1.932076   -1.228172   -3.398312 H        1 UNL1     0.2098
     109 H         2.851676   3.139707   -1.230868 H        1 UNL1     0.0234
     110 H         1.861202   1.820261   -1.931457 H        1 UNL1     0.0234
     111 H         1.445392   2.50739   -0.40051 H        1 UNL1     0.0234
     112 H         -0.043644   -2.177891   1.616495 H        1 UNL1     0.0342
     113 H         1.676468   -1.961244   2.098693 H        1 UNL1     0.0342
     114 H         0.392741   -1.880582   3.308449 H        1 UNL1     0.0342
     115 H         3.1606   -3.424399   0.32234 H        1 UNL1     0.0234
     116 H         4.223251   -2.352434   -0.595511 H        1 UNL1     0.0234
     117 H         3.994925   -2.200801   1.159061 H        1 UNL1     0.0234
     118 H         5.750245   3.160255   -3.286002 H        1 UNL1     0.0309
     119 H         5.631728   4.434728   -4.538893 H        1 UNL1     0.0309
     120 H         4.235078   3.913943   -3.622208 H        1 UNL1     0.0309
     121 H         6.178656   -1.934016   -1.82821 H        1 UNL1     0.0524
     122 H         6.596976   -0.240097   -2.115446 H        1 UNL1     0.0524
     123 H         6.696064   -0.904628   -0.4655 H        1 UNL1     0.0524
@<TRIPOS>BOND
     1     1     2    1
     2     1    42    1
     3     2     3    2
     4     3     4    1
     5     4     5    2
     6     5     7    1
     7     6    75    1
     8     6    76    1
     9     6    77    1
    10     7     9   am
    11     9    10    1
    12    10    11    2
    13    10    43    1
    14    11    14    1
    15    11    15    1
    16    12    13   ar
    17    12    27   ar
    18    12    43    1
    19    13    14    1
    20    13    30   ar
    21    14    17    2
    22    15    16    1
    23    16    17    1
    24    16    18    1
    25    16    22    1
    26    18    19    1
    27    19    20    1
    28    20    21    1
    29    21    22    1
    30    23    24    1
    31    23    88    1
    32    23    89    1
    33    24    25    1
    34    24    26    1
    35    24    90    1
    36    25    91    1
    37    25    92    1
    38    25    93    1
    39    26    94    1
    40    26    95    1
    41    26    96    1
    42    27    28   ar
    43    28    29   ar
    44    29    30   ar
    45    29    31    1
    46    30    33    1
    47    31    32    1
    48    32    33    1
    49    32    35    1
    50    34    97    1
    51    34    98    1
    52    34    99    1
    53    35    61    1
    54    36    37    1
    55    36    60    1
    56    37    38    1
    57    38    39    1
    58    39    40    1
    59    40    41    1
    60    41    42    1
    61    45   100    1
    62    47   101    1
    63    47   102    1
    64    47   103    1
    65    48   104    1
    66    49   105    1
    67    49   106    1
    68    49   107    1
    69    50   108    1
    70    51    59    1
    71    52   109    1
    72    52   110    1
    73    52   111    1
    74    53    54    1
    75    54    55    2
    76    54    56    1
    77    56   112    1
    78    56   113    1
    79    56   114    1
    80    57   115    1
    81    57   116    1
    82    57   117    1
    83    58   118    1
    84    58   119    1
    85    58   120    1
    86    59   121    1
    87    59   122    1
    88    59   123    1
    89    60    61    2
    90     1    47    1
    91     1    62    1
    92     2    63    1
    93     3    64    1
    94     4    65    1
    95     5     6    1
    96     7     8    2
    97     9    78    1
    98    15    79    1
    99    18    80    1
   100    18    81    1
   101    19    82    1
   102    19    83    1
   103    20    23    1
   104    21    84    1
   105    21    85    1
   106    22    86    1
   107    22    87    1
   108    27    45    1
   109    28    34    1
   110    32    58    1
   111    33    46    2
   112    36    51    1
   113    36    66    1
   114    37    52    1
   115    37    67    1
   116    38    53    1
   117    38    68    1
   118    42    48    1
   119    42    72    1
   120    43    44    2
   121    60    73    1
   122    61    74    1
   123    39    69    1
   124    39    57    1
   125    40    70    1
   126    40    50    1
   127    41    71    1
   128    41    49    1
