@<TRIPOS>MOLECULE
*****
 123 128 0 0 0
SMALL
GASTEIGER

@<TRIPOS>ATOM
     1 C         4.370171   2.45458   -1.585323 C.3        1 UNL1     0.0009
     2 C         5.541943   2.49209   -3.021492 C.2        1 UNL1     -0.0787
     3 C         6.859919   2.25948   -3.57365 C.2        1 UNL1     -0.0649
     4 C         7.350224   2.394249   -5.188517 C.2        1 UNL1     -0.0542
     5 C         8.329152   2.01578   -6.140115 C.2        1 UNL1     0.0115
     6 C         9.718797   1.343483   -6.313966 C.3        1 UNL1     -0.0348
     7 C         7.987142   2.151878   -7.702644 C.2        1 UNL1     0.2441
     8 O         8.406438   3.066569   -8.398386 O.2        1 UNL1     -0.2702
     9 N         7.392253   1.014834   -8.276568 N.am        1 UNL1     -0.2772
     10 C         6.024138   1.067753   -8.139514 C.2        1 UNL1     0.1049
     11 C         5.538812   0.656767   -6.98203 C.2        1 UNL1     0.0801
     12 C         4.053671   2.571638   -8.475556 C.ar        1 UNL1     0.0753
     13 C         3.680553   2.253341   -7.130907 C.ar        1 UNL1     0.0305
     14 C         4.340374   1.182861   -6.386757 C.2        1 UNL1     0.0924
     15 N         6.140738   -0.005355   -5.97913 N.pl3        1 UNL1     -0.3170
     16 C         5.12951   -0.365263   -5.020936 C.3        1 UNL1     0.1275
     17 N         4.062688   0.689876   -5.183103 N.2        1 UNL1     -0.2557
     18 C         4.505071   -1.674867   -5.492863 C.3        1 UNL1     0.0016
     19 C         5.608412   -2.707633   -5.65907 C.3        1 UNL1     0.0026
     20 N         6.284113   -2.880145   -4.380518 N.3        1 UNL1     -0.3018
     21 C         6.864788   -1.660717   -3.814672 C.3        1 UNL1     0.0026
     22 C         5.738234   -0.638813   -3.651931 C.3        1 UNL1     0.0016
     23 C         7.144928   -4.045791   -4.350359 C.3        1 UNL1     0.0012
     24 C         6.307229   -5.334205   -4.353101 C.3        1 UNL1     -0.0339
     25 C         6.266512   -5.975536   -5.749916 C.3        1 UNL1     -0.0615
     26 C         6.836632   -6.301811   -3.308949 C.3        1 UNL1     -0.0615
     27 C         3.341495   3.5095   -9.219422 C.ar        1 UNL1     0.1347
     28 C         2.219066   4.16212   -8.741625 C.ar        1 UNL1     0.0342
     29 C         1.899532   3.869153   -7.39878 C.ar        1 UNL1     0.1435
     30 C         2.62539   2.958872   -6.629536 C.ar        1 UNL1     0.0774
     31 O         0.771511   4.340339   -6.823838 O.3        1 UNL1     -0.4436
     32 C         0.556153   3.483687   -5.692184 C.3        1 UNL1     0.3143
     33 C         1.919277   2.907522   -5.366392 C.2        1 UNL1     0.2504
     34 C         1.262891   4.985237   -9.559127 C.3        1 UNL1     -0.0327
     35 O         0.182342   4.319699   -4.590094 O.2        1 UNL1     -0.4528
     36 C         -2.08368   2.203489   -2.400371 C.3        1 UNL1     0.0854
     37 C         -1.793363   0.811405   -1.718212 C.3        1 UNL1     0.0236
     38 C         -2.023158   0.77529   -0.131507 C.3        1 UNL1     0.1131
     39 C         -1.356676   1.880045   0.783692 C.3        1 UNL1     0.0200
     40 C         0.225166   2.345045   0.530734 C.3        1 UNL1     0.0661
     41 C         1.553248   1.302476   0.366848 C.3        1 UNL1     0.0091
     42 C         3.088911   1.477764   -0.621289 C.3        1 UNL1     0.0661
     43 C         5.169709   1.80464   -9.082543 C.2        1 UNL1     0.2131
     44 O         5.330705   1.687326   -10.283815 O.2        1 UNL1     -0.2851
     45 O         3.79794   3.794838   -10.504599 O.3        1 UNL1     -0.5056
     46 O         2.336136   2.515209   -4.29954 O.2        1 UNL1     -0.2836
     47 C         4.676328   3.622004   -0.608916 C.3        1 UNL1     -0.0566
     48 O         3.985823   1.083628   0.491959 O.3        1 UNL1     -0.3909
     49 C         1.044674   -0.104676   0.146007 C.3        1 UNL1     -0.0577
     50 O         0.29662   3.374113   -0.435514 O.3        1 UNL1     -0.3910
     51 O         -2.336118   3.278352   -1.5238 O.3        1 UNL1     -0.3753
     52 C         -0.601877   0.065262   -2.402741 C.3        1 UNL1     -0.0564
     53 O         -2.085103   -0.613115   0.434904 O.3        1 UNL1     -0.4608
     54 C         -1.572209   -1.001905   1.644743 C.2        1 UNL1     0.3042
     55 O         -0.388344   -1.034896   1.97823 O.2        1 UNL1     -0.2512
     56 C         -2.623229   -1.364747   2.6549 C.3        1 UNL1     0.0332
     57 C         -2.442852   3.030052   1.020083 C.3        1 UNL1     -0.0567
     58 C         -0.365438   2.34075   -6.177876 C.3        1 UNL1     0.0210
     59 C         -3.694006   3.714921   -1.486195 C.3        1 UNL1     0.0372
     60 C         -1.040456   2.665084   -3.356286 C.2        1 UNL1     -0.0208
     61 C         -0.475613   3.863837   -3.506918 C.2        1 UNL1     0.0882
     62 H         3.572592   2.804844   -2.251576 H        1 UNL1     0.0365
     63 H         4.91134   2.949262   -3.78687 H        1 UNL1     0.0576
     64 H         7.654151   1.796555   -2.983731 H        1 UNL1     0.0615
     65 H         6.528332   2.934434   -5.666198 H        1 UNL1     0.0622
     66 H         -2.988433   2.033301   -3.000793 H        1 UNL1     0.0645
     67 H         -2.61282   0.162685   -2.073476 H        1 UNL1     0.0362
     68 H         -3.103871   0.981255   -0.097423 H        1 UNL1     0.0741
     69 H         -1.338169   1.521713   1.804311 H        1 UNL1     0.0359
     70 H         0.430492   2.853589   1.492131 H        1 UNL1     0.0600
     71 H         1.888379   1.249141   1.421267 H        1 UNL1     0.0348
     72 H         2.676435   2.49206   -0.519393 H        1 UNL1     0.0602
     73 H         -0.848434   1.895542   -4.062104 H        1 UNL1     0.0628
     74 H         -0.574976   4.685892   -2.797277 H        1 UNL1     0.1022
     75 H         10.449388   1.75742   -5.577809 H        1 UNL1     0.0279
     76 H         9.768635   0.274779   -6.117857 H        1 UNL1     0.0279
     77 H         10.200858   1.603856   -7.267656 H        1 UNL1     0.0279
     78 H         7.716319   0.179033   -7.794391 H        1 UNL1     0.1553
     79 H         6.996568   -0.518444   -6.08509 H        1 UNL1     0.1484
     80 H         3.759051   -2.000518   -4.757899 H        1 UNL1     0.0317
     81 H         3.972285   -1.535505   -6.43963 H        1 UNL1     0.0317
     82 H         6.319871   -2.420088   -6.447142 H        1 UNL1     0.0428
     83 H         5.141466   -3.632992   -5.997776 H        1 UNL1     0.0428
     84 H         7.295809   -1.801444   -2.818566 H        1 UNL1     0.0428
     85 H         7.704245   -1.28934   -4.418582 H        1 UNL1     0.0428
     86 H         6.170514   0.185822   -3.116115 H        1 UNL1     0.0317
     87 H         4.980879   -1.02335   -2.957928 H        1 UNL1     0.0317
     88 H         7.769134   -4.032848   -5.253406 H        1 UNL1     0.0429
     89 H         7.824733   -4.017296   -3.489064 H        1 UNL1     0.0429
     90 H         5.281289   -5.09624   -4.04809 H        1 UNL1     0.0308
     91 H         5.723801   -6.925466   -5.735747 H        1 UNL1     0.0233
     92 H         5.794094   -5.303302   -6.470007 H        1 UNL1     0.0233
     93 H         7.268786   -6.187583   -6.141475 H        1 UNL1     0.0233
     94 H         6.763668   -7.331123   -3.676412 H        1 UNL1     0.0233
     95 H         7.889952   -6.090877   -3.104044 H        1 UNL1     0.0233
     96 H         6.273518   -6.227783   -2.374395 H        1 UNL1     0.0233
     97 H         0.248197   4.601866   -9.507609 H        1 UNL1     0.0280
     98 H         1.209382   6.024948   -9.210712 H        1 UNL1     0.0280
     99 H         1.58092   4.98048   -10.614555 H        1 UNL1     0.0280
     100 H         4.718875   3.980138   -10.560856 H        1 UNL1     0.2922
     101 H         3.925362   4.403442   -0.723201 H        1 UNL1     0.0236
     102 H         5.689271   4.010384   -0.709372 H        1 UNL1     0.0236
     103 H         4.598042   3.310787   0.446171 H        1 UNL1     0.0236
     104 H         3.625858   1.473091   1.312761 H        1 UNL1     0.2098
     105 H         1.45543   -0.598167   -0.731238 H        1 UNL1     0.0234
     106 H         1.118445   -0.757292   1.015821 H        1 UNL1     0.0234
     107 H         -0.0   0.0   0.0 H        1 UNL1     0.0234
     108 H         0.101866   4.215029   0.021322 H        1 UNL1     0.2098
     109 H         -0.798637   -0.148283   -3.462644 H        1 UNL1     0.0234
     110 H         0.350972   0.596884   -2.306821 H        1 UNL1     0.0234
     111 H         -0.411434   -0.909194   -1.933579 H        1 UNL1     0.0234
     112 H         -2.973577   -0.463708   3.167474 H        1 UNL1     0.0342
     113 H         -3.453985   -1.906336   2.205044 H        1 UNL1     0.0342
     114 H         -2.164669   -2.022665   3.40592 H        1 UNL1     0.0342
     115 H         -2.176646   3.957508   0.494584 H        1 UNL1     0.0234
     116 H         -3.453666   2.756246   0.71132 H        1 UNL1     0.0234
     117 H         -2.489677   3.382931   2.0647 H        1 UNL1     0.0234
     118 H         -1.375773   2.407376   -5.73766 H        1 UNL1     0.0309
     119 H         -0.452207   2.292652   -7.267995 H        1 UNL1     0.0309
     120 H         -0.015054   1.353412   -5.857717 H        1 UNL1     0.0309
     121 H         -4.209121   3.124996   -0.728567 H        1 UNL1     0.0524
     122 H         -3.78459   4.775797   -1.199186 H        1 UNL1     0.0524
     123 H         -4.162135   3.570776   -2.455819 H        1 UNL1     0.0524
@<TRIPOS>BOND
     1     1     2    1
     2     1    42    1
     3     2     3    2
     4     3     4    1
     5     4     5    2
     6     5     7    1
     7     6    75    1
     8     6    76    1
     9     6    77    1
    10     7     9   am
    11     9    10    1
    12    10    11    2
    13    10    43    1
    14    11    14    1
    15    11    15    1
    16    12    13   ar
    17    12    27   ar
    18    12    43    1
    19    13    14    1
    20    13    30   ar
    21    14    17    2
    22    15    16    1
    23    16    17    1
    24    16    18    1
    25    16    22    1
    26    18    19    1
    27    19    20    1
    28    20    21    1
    29    21    22    1
    30    23    24    1
    31    23    88    1
    32    23    89    1
    33    24    25    1
    34    24    26    1
    35    24    90    1
    36    25    91    1
    37    25    92    1
    38    25    93    1
    39    26    94    1
    40    26    95    1
    41    26    96    1
    42    27    28   ar
    43    28    29   ar
    44    29    30   ar
    45    29    31    1
    46    30    33    1
    47    31    32    1
    48    32    33    1
    49    32    35    1
    50    34    97    1
    51    34    98    1
    52    34    99    1
    53    35    61    1
    54    36    37    1
    55    36    60    1
    56    37    38    1
    57    38    39    1
    58    39    40    1
    59    40    41    1
    60    41    42    1
    61    45   100    1
    62    47   101    1
    63    47   102    1
    64    47   103    1
    65    48   104    1
    66    49   105    1
    67    49   106    1
    68    49   107    1
    69    50   108    1
    70    51    59    1
    71    52   109    1
    72    52   110    1
    73    52   111    1
    74    53    54    1
    75    54    55    2
    76    54    56    1
    77    56   112    1
    78    56   113    1
    79    56   114    1
    80    57   115    1
    81    57   116    1
    82    57   117    1
    83    58   118    1
    84    58   119    1
    85    58   120    1
    86    59   121    1
    87    59   122    1
    88    59   123    1
    89    60    61    2
    90     1    47    1
    91     1    62    1
    92     2    63    1
    93     3    64    1
    94     4    65    1
    95     5     6    1
    96     7     8    2
    97     9    78    1
    98    15    79    1
    99    18    80    1
   100    18    81    1
   101    19    82    1
   102    19    83    1
   103    20    23    1
   104    21    84    1
   105    21    85    1
   106    22    86    1
   107    22    87    1
   108    27    45    1
   109    28    34    1
   110    32    58    1
   111    33    46    2
   112    36    51    1
   113    36    66    1
   114    37    52    1
   115    37    67    1
   116    38    53    1
   117    38    68    1
   118    42    48    1
   119    42    72    1
   120    43    44    2
   121    60    73    1
   122    61    74    1
   123    39    69    1
   124    39    57    1
   125    40    70    1
   126    40    50    1
   127    41    71    1
   128    41    49    1
