@<TRIPOS>MOLECULE
*****
 123 128 0 0 0
SMALL
GASTEIGER

@<TRIPOS>ATOM
     1 C         1.637792   3.29376   -3.778576 C.3        1 UNL1     0.0009
     2 C         2.418812   3.267692   -5.459755 C.2        1 UNL1     -0.0787
     3 C         3.538261   3.562027   -6.329379 C.2        1 UNL1     -0.0649
     4 C         3.727791   3.144446   -7.959122 C.2        1 UNL1     -0.0542
     5 C         4.660229   2.961291   -9.00988 C.2        1 UNL1     0.0115
     6 C         6.141168   3.175553   -9.427296 C.3        1 UNL1     -0.0348
     7 C         4.219423   2.115329   -10.301014 C.2        1 UNL1     0.2441
     8 O         3.904825   2.636236   -11.362245 O.2        1 UNL1     -0.2702
     9 N         4.469067   0.734662   -10.213909 N.am        1 UNL1     -0.2772
     10 C         3.40315   0.089864   -9.629634 C.2        1 UNL1     0.1049
     11 C         3.369002   0.100551   -8.309429 C.2        1 UNL1     0.0801
     12 C         0.912313   -0.117083   -9.730803 C.ar        1 UNL1     0.0753
     13 C         0.914575   0.10855   -8.317406 C.ar        1 UNL1     0.0305
     14 C         2.153032   0.093433   -7.542133 C.2        1 UNL1     0.0924
     15 N         4.314545   0.458352   -7.423735 N.pl3        1 UNL1     -0.3170
     16 C         3.835805   0.120901   -6.109509 C.3        1 UNL1     0.1275
     17 N         2.332505   0.18353   -6.227371 N.2        1 UNL1     -0.2557
     18 C         4.180724   -1.345068   -5.865242 C.3        1 UNL1     0.0016
     19 C         5.677799   -1.530561   -6.054838 C.3        1 UNL1     0.0026
     20 N         6.378923   -0.664104   -5.117445 N.3        1 UNL1     -0.3018
     21 C         6.06468   0.761383   -5.234088 C.3        1 UNL1     0.0026
     22 C         4.556785   0.925086   -5.03572 C.3        1 UNL1     0.0016
     23 C         7.78933   -0.978551   -5.005552 C.3        1 UNL1     0.0012
     24 C         7.986313   -2.320494   -4.282958 C.3        1 UNL1     -0.0339
     25 C         9.264789   -2.316925   -3.428826 C.3        1 UNL1     -0.0615
     26 C         6.758977   -2.648942   -3.450763 C.3        1 UNL1     -0.0615
     27 C         -0.280092   -0.221325   -10.443139 C.ar        1 UNL1     0.1347
     28 C         -1.527154   -0.156781   -9.847554 C.ar        1 UNL1     0.0342
     29 C         -1.500666   0.114607   -8.463065 C.ar        1 UNL1     0.1435
     30 C         -0.314204   0.257448   -7.742561 C.ar        1 UNL1     0.0774
     31 O         -2.62879   0.098511   -7.720042 O.3        1 UNL1     -0.4436
     32 C         -2.170867   -0.061318   -6.368881 C.3        1 UNL1     0.3143
     33 C         -0.742629   0.444981   -6.372142 C.2        1 UNL1     0.2504
     34 C         -2.835118   -0.50838   -10.500017 C.3        1 UNL1     -0.0327
     35 O         -2.930568   0.838383   -5.552399 O.2        1 UNL1     -0.4528
     36 C         -3.153232   -0.795091   -2.133295 C.3        1 UNL1     0.0854
     37 C         -1.991159   -1.26229   -1.174737 C.3        1 UNL1     0.0236
     38 C         -2.048212   -0.64839   0.305674 C.3        1 UNL1     0.1131
     39 C         -2.20228   0.913591   0.502517 C.3        1 UNL1     0.0200
     40 C         -1.315987   1.974306   -0.43119 C.3        1 UNL1     0.0661
     41 C         0.358381   1.905934   -0.694678 C.3        1 UNL1     0.0091
     42 C         1.35341   2.388786   -2.158295 C.3        1 UNL1     0.0661
     43 C         2.220867   -0.325737   -10.398942 C.2        1 UNL1     0.2131
     44 O         2.347814   -0.896758   -11.466911 O.2        1 UNL1     -0.2851
     45 O         -0.194162   -0.395408   -11.822904 O.3        1 UNL1     -0.5056
     46 O         -0.108556   0.917472   -5.455323 O.2        1 UNL1     -0.2836
     47 C         1.172943   4.731416   -3.422149 C.3        1 UNL1     -0.0566
     48 O         2.356272   3.14451   -1.369458 O.3        1 UNL1     -0.3909
     49 C         0.869401   0.557287   -0.239153 C.3        1 UNL1     -0.0577
     50 O         -1.985042   2.2534   -1.64453 O.3        1 UNL1     -0.3910
     51 O         -3.988655   0.226009   -1.63645 O.3        1 UNL1     -0.3753
     52 C         -0.643363   -1.452792   -1.94422 C.3        1 UNL1     -0.0564
     53 O         -1.163122   -1.361168   1.285924 O.3        1 UNL1     -0.4608
     54 C         -0.449849   -0.76496   2.292755 C.2        1 UNL1     0.3042
     55 O         0.756123   -0.521774   2.310942 O.2        1 UNL1     -0.2512
     56 C         -1.297222   -0.331765   3.455086 C.3        1 UNL1     0.0332
     57 C         -3.758017   1.222624   0.70832 C.3        1 UNL1     -0.0567
     58 C         -2.160472   -1.581932   -6.087539 C.3        1 UNL1     0.0210
     59 C         -5.300992   -0.198113   -1.270719 C.3        1 UNL1     0.0372
     60 C         -2.715847   -0.369365   -3.490724 C.2        1 UNL1     -0.0208
     61 C         -3.07129   0.688257   -4.221367 C.2        1 UNL1     0.0882
     62 H         0.765362   2.777471   -4.196935 H        1 UNL1     0.0365
     63 H         1.598215   2.868129   -6.059289 H        1 UNL1     0.0576
     64 H         4.476524   3.962499   -5.939004 H        1 UNL1     0.0615
     65 H         2.725172   2.835884   -8.267385 H        1 UNL1     0.0622
     66 H         -3.766386   -1.69496   -2.282707 H        1 UNL1     0.0645
     67 H         -2.215236   -2.325543   -0.980208 H        1 UNL1     0.0362
     68 H         -3.000855   -1.080928   0.647585 H        1 UNL1     0.0741
     69 H         -1.895703   1.169585   1.507945 H        1 UNL1     0.0359
     70 H         -1.431956   2.898023   0.167441 H        1 UNL1     0.0600
     71 H         0.710223   2.560173   0.126988 H        1 UNL1     0.0348
     72 H         0.389546   2.907903   -2.262216 H        1 UNL1     0.0602
     73 H         -2.113795   -1.131932   -3.918829 H        1 UNL1     0.0628
     74 H         -3.636676   1.539259   -3.840089 H        1 UNL1     0.1022
     75 H         6.472268   4.212774   -9.179142 H        1 UNL1     0.0279
     76 H         6.882323   2.564633   -8.91687 H        1 UNL1     0.0279
     77 H         6.282408   3.157984   -10.517912 H        1 UNL1     0.0279
     78 H         5.284905   0.570906   -9.627676 H        1 UNL1     0.1553
     79 H         5.290765   0.522947   -7.646794 H        1 UNL1     0.1484
     80 H         3.868123   -1.621721   -4.851087 H        1 UNL1     0.0317
     81 H         3.629375   -1.996424   -6.551829 H        1 UNL1     0.0317
     82 H         5.98564   -1.324478   -7.090538 H        1 UNL1     0.0428
     83 H         5.901656   -2.582978   -5.877762 H        1 UNL1     0.0428
     84 H         6.542496   1.379995   -4.468045 H        1 UNL1     0.0428
     85 H         6.426485   1.183518   -6.18183 H        1 UNL1     0.0428
     86 H         4.383471   1.984454   -4.994629 H        1 UNL1     0.0317
     87 H         4.271245   0.582151   -4.033742 H        1 UNL1     0.0317
     88 H         8.201741   -1.063719   -6.019435 H        1 UNL1     0.0429
     89 H         8.338708   -0.173012   -4.501504 H        1 UNL1     0.0429
     90 H         8.06621   -3.121167   -5.027775 H        1 UNL1     0.0308
     91 H         9.345459   -1.399939   -2.837445 H        1 UNL1     0.0233
     92 H         9.283637   -3.179087   -2.758058 H        1 UNL1     0.0233
     93 H         10.174279   -2.383574   -4.038105 H        1 UNL1     0.0233
     94 H         6.671036   -1.947308   -2.614216 H        1 UNL1     0.0233
     95 H         5.857299   -2.558381   -4.062922 H        1 UNL1     0.0233
     96 H         6.810788   -3.663804   -3.04661 H        1 UNL1     0.0233
     97 H         -3.355151   -1.300451   -9.969527 H        1 UNL1     0.0280
     98 H         -3.527965   0.342898   -10.523355 H        1 UNL1     0.0280
     99 H         -2.653004   -0.846258   -11.533346 H        1 UNL1     0.0280
     100 H         0.382515   0.207408   -12.258424 H        1 UNL1     0.2922
     101 H         0.089921   4.802604   -3.520398 H        1 UNL1     0.0236
     102 H         1.687126   5.502521   -3.994859 H        1 UNL1     0.0236
     103 H         1.375396   4.982616   -2.367585 H        1 UNL1     0.0236
     104 H         2.159701   2.996902   -0.423656 H        1 UNL1     0.2098
     105 H         1.419802   0.006061   -0.997453 H        1 UNL1     0.0234
     106 H         1.428915   0.574492   0.696034 H        1 UNL1     0.0234
     107 H         0.0   0.0   0.0 H        1 UNL1     0.0234
     108 H         -1.339832   2.681317   -2.239811 H        1 UNL1     0.2098
     109 H         -0.717649   -2.217054   -2.730411 H        1 UNL1     0.0234
     110 H         -0.257522   -0.521864   -2.373456 H        1 UNL1     0.0234
     111 H         0.159879   -1.790828   -1.276028 H        1 UNL1     0.0234
     112 H         -0.672178   0.153346   4.210952 H        1 UNL1     0.0342
     113 H         -2.11356   0.319556   3.146512 H        1 UNL1     0.0342
     114 H         -1.740457   -1.228499   3.909593 H        1 UNL1     0.0342
     115 H         -3.919542   2.070159   1.388601 H        1 UNL1     0.0234
     116 H         -4.294125   1.438315   -0.218025 H        1 UNL1     0.0234
     117 H         -4.300016   0.419267   1.236331 H        1 UNL1     0.0234
     118 H         -2.945334   -1.875966   -5.36883 H        1 UNL1     0.0309
     119 H         -2.260028   -2.187272   -6.994101 H        1 UNL1     0.0309
     120 H         -1.236183   -1.91322   -5.601695 H        1 UNL1     0.0309
     121 H         -5.926295   -0.140339   -2.161232 H        1 UNL1     0.0524
     122 H         -5.320107   -1.243045   -0.918883 H        1 UNL1     0.0524
     123 H         -5.699695   0.443992   -0.490443 H        1 UNL1     0.0524
@<TRIPOS>BOND
     1     1     2    1
     2     1    42    1
     3     2     3    2
     4     3     4    1
     5     4     5    2
     6     5     7    1
     7     6    75    1
     8     6    76    1
     9     6    77    1
    10     7     9   am
    11     9    10    1
    12    10    11    2
    13    10    43    1
    14    11    14    1
    15    11    15    1
    16    12    13   ar
    17    12    27   ar
    18    12    43    1
    19    13    14    1
    20    13    30   ar
    21    14    17    2
    22    15    16    1
    23    16    17    1
    24    16    18    1
    25    16    22    1
    26    18    19    1
    27    19    20    1
    28    20    21    1
    29    21    22    1
    30    23    24    1
    31    23    88    1
    32    23    89    1
    33    24    25    1
    34    24    26    1
    35    24    90    1
    36    25    91    1
    37    25    92    1
    38    25    93    1
    39    26    94    1
    40    26    95    1
    41    26    96    1
    42    27    28   ar
    43    28    29   ar
    44    29    30   ar
    45    29    31    1
    46    30    33    1
    47    31    32    1
    48    32    33    1
    49    32    35    1
    50    34    97    1
    51    34    98    1
    52    34    99    1
    53    35    61    1
    54    36    37    1
    55    36    60    1
    56    37    38    1
    57    38    39    1
    58    39    40    1
    59    40    41    1
    60    41    42    1
    61    45   100    1
    62    47   101    1
    63    47   102    1
    64    47   103    1
    65    48   104    1
    66    49   105    1
    67    49   106    1
    68    49   107    1
    69    50   108    1
    70    51    59    1
    71    52   109    1
    72    52   110    1
    73    52   111    1
    74    53    54    1
    75    54    55    2
    76    54    56    1
    77    56   112    1
    78    56   113    1
    79    56   114    1
    80    57   115    1
    81    57   116    1
    82    57   117    1
    83    58   118    1
    84    58   119    1
    85    58   120    1
    86    59   121    1
    87    59   122    1
    88    59   123    1
    89    60    61    2
    90     1    47    1
    91     1    62    1
    92     2    63    1
    93     3    64    1
    94     4    65    1
    95     5     6    1
    96     7     8    2
    97     9    78    1
    98    15    79    1
    99    18    80    1
   100    18    81    1
   101    19    82    1
   102    19    83    1
   103    20    23    1
   104    21    84    1
   105    21    85    1
   106    22    86    1
   107    22    87    1
   108    27    45    1
   109    28    34    1
   110    32    58    1
   111    33    46    2
   112    36    51    1
   113    36    66    1
   114    37    52    1
   115    37    67    1
   116    38    53    1
   117    38    68    1
   118    42    48    1
   119    42    72    1
   120    43    44    2
   121    60    73    1
   122    61    74    1
   123    39    69    1
   124    39    57    1
   125    40    70    1
   126    40    50    1
   127    41    71    1
   128    41    49    1
