@<TRIPOS>MOLECULE
*****
 123 128 0 0 0
SMALL
GASTEIGER

@<TRIPOS>ATOM
     1 C         5.114994   1.925553   0.358258 C.3        1 UNL1     0.0009
     2 C         6.547044   2.662749   -0.559791 C.2        1 UNL1     -0.0787
     3 C         7.842429   2.519893   -1.190358 C.2        1 UNL1     -0.0649
     4 C         8.703686   3.679858   -2.073011 C.2        1 UNL1     -0.0542
     5 C         9.732926   3.886328   -3.024385 C.2        1 UNL1     0.0115
     6 C         10.890665   3.192663   -3.793664 C.3        1 UNL1     -0.0348
     7 C         9.803928   5.290168   -3.799745 C.2        1 UNL1     0.2441
     8 O         10.601404   6.17118   -3.50927 O.2        1 UNL1     -0.2702
     9 N         9.069805   5.339214   -4.99758 N.am        1 UNL1     -0.2772
     10 C         7.772987   5.72718   -4.750462 C.2        1 UNL1     0.1049
     11 C         6.945338   4.775454   -4.358754 C.2        1 UNL1     0.0801
     12 C         6.412359   7.454549   -3.557893 C.ar        1 UNL1     0.0753
     13 C         5.672347   6.367906   -2.992031 C.ar        1 UNL1     0.0305
     14 C         5.831423   4.998937   -3.477491 C.2        1 UNL1     0.0924
     15 N         7.102068   3.440552   -4.358525 N.pl3        1 UNL1     -0.3170
     16 C         5.841354   2.850172   -3.99479 C.3        1 UNL1     0.1275
     17 N         5.165401   3.897191   -3.143578 N.2        1 UNL1     -0.2557
     18 C         5.009779   2.738866   -5.269073 C.3        1 UNL1     0.0016
     19 C         5.800387   1.946613   -6.298084 C.3        1 UNL1     0.0026
     20 N         6.096119   0.630614   -5.748796 N.3        1 UNL1     -0.3018
     21 C         6.841061   0.636191   -4.488083 C.3        1 UNL1     0.0026
     22 C         6.026582   1.433324   -3.467741 C.3        1 UNL1     0.0016
     23 C         6.579349   -0.301803   -6.747661 C.3        1 UNL1     0.0012
     24 C         5.44762   -0.694117   -7.710488 C.3        1 UNL1     -0.0339
     25 C         5.542573   0.080425   -9.035299 C.3        1 UNL1     -0.0615
     26 C         5.455356   -2.195615   -7.939012 C.3        1 UNL1     -0.0615
     27 C         6.168356   8.771144   -3.17428 C.ar        1 UNL1     0.1347
     28 C         5.186416   9.126869   -2.26692 C.ar        1 UNL1     0.0342
     29 C         4.503801   8.036725   -1.686586 C.ar        1 UNL1     0.1435
     30 C         4.762315   6.710284   -2.03436 C.ar        1 UNL1     0.0774
     31 O         3.445524   8.223016   -0.867836 O.3        1 UNL1     -0.4436
     32 C         2.755755   6.96403   -0.874561 C.3        1 UNL1     0.3143
     33 C         3.801432   5.941536   -1.271146 C.2        1 UNL1     0.2504
     34 C         4.699765   10.523384   -1.996704 C.3        1 UNL1     -0.0327
     35 O         2.382359   6.675658   0.478461 O.2        1 UNL1     -0.4528
     36 C         -0.806693   4.628201   0.264088 C.3        1 UNL1     0.0854
     37 C         -1.066296   3.263701   -0.483085 C.3        1 UNL1     0.0236
     38 C         -1.650735   2.088867   0.438838 C.3        1 UNL1     0.1131
     39 C         -0.93572   1.732912   1.804238 C.3        1 UNL1     0.0200
     40 C         0.72746   1.635613   1.886734 C.3        1 UNL1     0.0661
     41 C         1.725167   0.759725   0.830793 C.3        1 UNL1     0.0091
     42 C         3.433406   1.097061   0.253276 C.3        1 UNL1     0.0661
     43 C         7.386659   7.141106   -4.632486 C.2        1 UNL1     0.2131
     44 O         7.777852   7.958617   -5.44574 O.2        1 UNL1     -0.2851
     45 O         6.963935   9.765709   -3.739375 O.3        1 UNL1     -0.5056
     46 O         3.843503   4.762449   -0.999418 O.2        1 UNL1     -0.2836
     47 C         5.495954   1.677971   1.842696 C.3        1 UNL1     -0.0566
     48 O         3.913625   -0.282812   0.507165 O.3        1 UNL1     -0.3909
     49 C         0.918696   0.36211   -0.385349 C.3        1 UNL1     -0.0577
     50 O         1.291738   2.906048   2.142287 O.3        1 UNL1     -0.3910
     51 O         -0.95079   4.599932   1.666182 O.3        1 UNL1     -0.3753
     52 C         0.001816   2.995846   -1.593193 C.3        1 UNL1     -0.0564
     53 O         -2.212697   0.936487   -0.341255 O.3        1 UNL1     -0.4608
     54 C         -2.393733   -0.334752   0.137397 C.2        1 UNL1     0.3042
     55 O         -1.780639   -1.350215   -0.189388 O.2        1 UNL1     -0.2512
     56 C         -3.431767   -0.427855   1.219307 C.3        1 UNL1     0.0332
     57 C         -1.694458   2.526615   2.96722 C.3        1 UNL1     -0.0567
     58 C         1.694362   7.052768   -1.995766 C.3        1 UNL1     0.0210
     59 C         -1.304716   5.849231   2.257666 C.3        1 UNL1     0.0372
     60 C         0.510952   5.259577   -0.01935 C.2        1 UNL1     -0.0208
     61 C         1.397894   5.816917   0.80615 C.2        1 UNL1     0.0882
     62 H         4.614524   2.90071   0.322067 H        1 UNL1     0.0365
     63 H         6.254195   3.714492   -0.583177 H        1 UNL1     0.0576
     64 H         8.326591   1.545776   -1.28931 H        1 UNL1     0.0615
     65 H         8.189105   4.616895   -1.843554 H        1 UNL1     0.0622
     66 H         -1.563162   5.313957   -0.142779 H        1 UNL1     0.0645
     67 H         -1.927989   3.477058   -1.139227 H        1 UNL1     0.0362
     68 H         -2.613902   2.539693   0.722719 H        1 UNL1     0.0741
     69 H         -1.246691   0.743591   2.112375 H        1 UNL1     0.0359
     70 H         0.839229   1.086269   2.841086 H        1 UNL1     0.0600
     71 H         1.785293   -0.202867   1.375548 H        1 UNL1     0.0348
     72 H         3.298783   1.693948   1.167015 H        1 UNL1     0.0602
     73 H         0.642416   5.336822   -1.070064 H        1 UNL1     0.0628
     74 H         1.366466   5.732817   1.892969 H        1 UNL1     0.1022
     75 H         10.940364   2.108059   -3.532514 H        1 UNL1     0.0279
     76 H         10.807014   3.168967   -4.877874 H        1 UNL1     0.0279
     77 H         11.883373   3.539094   -3.470836 H        1 UNL1     0.0279
     78 H         9.037604   4.412416   -5.417206 H        1 UNL1     0.1553
     79 H         7.788029   2.9602   -4.911384 H        1 UNL1     0.1484
     80 H         4.057073   2.249744   -5.032689 H        1 UNL1     0.0317
     81 H         4.76359   3.730557   -5.663524 H        1 UNL1     0.0317
     82 H         6.722485   2.468715   -6.593141 H        1 UNL1     0.0428
     83 H         5.189924   1.880819   -7.199225 H        1 UNL1     0.0428
     84 H         6.980482   -0.359887   -4.05657 H        1 UNL1     0.0428
     85 H         7.863856   1.015649   -4.619309 H        1 UNL1     0.0428
     86 H         6.532681   1.304456   -2.528994 H        1 UNL1     0.0317
     87 H         5.056624   0.948841   -3.301747 H        1 UNL1     0.0317
     88 H         7.371581   0.194523   -7.323269 H        1 UNL1     0.0429
     89 H         7.027881   -1.188543   -6.281523 H        1 UNL1     0.0429
     90 H         4.482618   -0.467437   -7.241872 H        1 UNL1     0.0308
     91 H         6.509577   -0.079998   -9.521376 H        1 UNL1     0.0233
     92 H         4.744008   -0.221152   -9.717173 H        1 UNL1     0.0233
     93 H         5.432596   1.162602   -8.89518 H        1 UNL1     0.0233
     94 H         4.819265   -2.450904   -8.793442 H        1 UNL1     0.0233
     95 H         6.471016   -2.534429   -8.161724 H        1 UNL1     0.0233
     96 H         5.087886   -2.734731   -7.061352 H        1 UNL1     0.0233
     97 H         3.88873   10.539697   -1.274771 H        1 UNL1     0.0280
     98 H         5.487968   11.162475   -1.577711 H        1 UNL1     0.0280
     99 H         4.337017   10.975661   -2.93423 H        1 UNL1     0.0280
     100 H         6.485043   10.477375   -4.126437 H        1 UNL1     0.2922
     101 H         4.631355   1.296477   2.385455 H        1 UNL1     0.0236
     102 H         5.928578   2.553352   2.325944 H        1 UNL1     0.0236
     103 H         6.261859   0.891537   1.948068 H        1 UNL1     0.0236
     104 H         4.31517   -0.296147   1.397981 H        1 UNL1     0.2098
     105 H         0.695042   1.181766   -1.063548 H        1 UNL1     0.0234
     106 H         1.318079   -0.487761   -0.938648 H        1 UNL1     0.0234
     107 H         0.0   -0.0   0.0 H        1 UNL1     0.0234
     108 H         1.144853   3.453949   1.347304 H        1 UNL1     0.2098
     109 H         1.023346   2.966214   -1.189076 H        1 UNL1     0.0234
     110 H         -0.192322   2.082545   -2.165849 H        1 UNL1     0.0234
     111 H         0.005144   3.789976   -2.351674 H        1 UNL1     0.0234
     112 H         -3.511678   -1.461127   1.570461 H        1 UNL1     0.0342
     113 H         -3.224265   0.250609   2.045427 H        1 UNL1     0.0342
     114 H         -4.401784   -0.142225   0.7896 H        1 UNL1     0.0342
     115 H         -2.761082   2.266559   3.010496 H        1 UNL1     0.0234
     116 H         -1.275995   2.36317   3.96232 H        1 UNL1     0.0234
     117 H         -1.747401   3.615356   2.79465 H        1 UNL1     0.0234
     118 H         0.773145   7.557399   -1.655599 H        1 UNL1     0.0309
     119 H         2.063196   7.550739   -2.89809 H        1 UNL1     0.0309
     120 H         1.338807   6.067609   -2.316933 H        1 UNL1     0.0309
     121 H         -0.481409   6.54147   2.083514 H        1 UNL1     0.0524
     122 H         -2.20845   6.286846   1.801821 H        1 UNL1     0.0524
     123 H         -1.471881   5.726283   3.323983 H        1 UNL1     0.0524
@<TRIPOS>BOND
     1     1     2    1
     2     1    42    1
     3     2     3    2
     4     3     4    1
     5     4     5    2
     6     5     7    1
     7     6    75    1
     8     6    76    1
     9     6    77    1
    10     7     9   am
    11     9    10    1
    12    10    11    2
    13    10    43    1
    14    11    14    1
    15    11    15    1
    16    12    13   ar
    17    12    27   ar
    18    12    43    1
    19    13    14    1
    20    13    30   ar
    21    14    17    2
    22    15    16    1
    23    16    17    1
    24    16    18    1
    25    16    22    1
    26    18    19    1
    27    19    20    1
    28    20    21    1
    29    21    22    1
    30    23    24    1
    31    23    88    1
    32    23    89    1
    33    24    25    1
    34    24    26    1
    35    24    90    1
    36    25    91    1
    37    25    92    1
    38    25    93    1
    39    26    94    1
    40    26    95    1
    41    26    96    1
    42    27    28   ar
    43    28    29   ar
    44    29    30   ar
    45    29    31    1
    46    30    33    1
    47    31    32    1
    48    32    33    1
    49    32    35    1
    50    34    97    1
    51    34    98    1
    52    34    99    1
    53    35    61    1
    54    36    37    1
    55    36    60    1
    56    37    38    1
    57    38    39    1
    58    39    40    1
    59    40    41    1
    60    41    42    1
    61    45   100    1
    62    47   101    1
    63    47   102    1
    64    47   103    1
    65    48   104    1
    66    49   105    1
    67    49   106    1
    68    49   107    1
    69    50   108    1
    70    51    59    1
    71    52   109    1
    72    52   110    1
    73    52   111    1
    74    53    54    1
    75    54    55    2
    76    54    56    1
    77    56   112    1
    78    56   113    1
    79    56   114    1
    80    57   115    1
    81    57   116    1
    82    57   117    1
    83    58   118    1
    84    58   119    1
    85    58   120    1
    86    59   121    1
    87    59   122    1
    88    59   123    1
    89    60    61    2
    90     1    47    1
    91     1    62    1
    92     2    63    1
    93     3    64    1
    94     4    65    1
    95     5     6    1
    96     7     8    2
    97     9    78    1
    98    15    79    1
    99    18    80    1
   100    18    81    1
   101    19    82    1
   102    19    83    1
   103    20    23    1
   104    21    84    1
   105    21    85    1
   106    22    86    1
   107    22    87    1
   108    27    45    1
   109    28    34    1
   110    32    58    1
   111    33    46    2
   112    36    51    1
   113    36    66    1
   114    37    52    1
   115    37    67    1
   116    38    53    1
   117    38    68    1
   118    42    48    1
   119    42    72    1
   120    43    44    2
   121    60    73    1
   122    61    74    1
   123    39    69    1
   124    39    57    1
   125    40    70    1
   126    40    50    1
   127    41    71    1
   128    41    49    1
