@<TRIPOS>MOLECULE
*****
 123 128 0 0 0
SMALL
GASTEIGER

@<TRIPOS>ATOM
     1 C         -3.174952   -1.188197   -4.286821 C.3        1 UNL1     0.0009
     2 C         -4.638749   -0.647777   -5.287961 C.2        1 UNL1     -0.0787
     3 C         -6.025355   -0.807205   -5.672605 C.2        1 UNL1     -0.0649
     4 C         -6.948205   0.194896   -6.677842 C.2        1 UNL1     -0.0542
     5 C         -8.261673   0.574223   -7.049311 C.2        1 UNL1     0.0115
     6 C         -9.764559   0.210943   -6.898696 C.3        1 UNL1     -0.0348
     7 C         -8.478496   1.959631   -7.830734 C.2        1 UNL1     0.2441
     8 O         -8.672951   2.019852   -9.037004 O.2        1 UNL1     -0.2702
     9 N         -8.69032   3.075865   -7.002904 N.am        1 UNL1     -0.2772
     10 C         -7.489354   3.649319   -6.6534 C.2        1 UNL1     0.1049
     11 C         -6.854969   3.09682   -5.635303 C.2        1 UNL1     0.0801
     12 C         -5.325659   4.461047   -7.610926 C.ar        1 UNL1     0.0753
     13 C         -4.676396   3.672434   -6.608352 C.ar        1 UNL1     0.0305
     14 C         -5.42317   3.069722   -5.506483 C.2        1 UNL1     0.0924
     15 N         -7.282807   2.189909   -4.74032 N.pl3        1 UNL1     -0.3170
     16 C         -6.263397   2.050329   -3.734549 C.3        1 UNL1     0.1275
     17 N         -4.979481   2.399394   -4.446895 N.2        1 UNL1     -0.2557
     18 C         -6.48988   3.153314   -2.705068 C.3        1 UNL1     0.0016
     19 C         -7.911524   3.041892   -2.177713 C.3        1 UNL1     0.0026
     20 N         -8.087473   1.724744   -1.581733 N.3        1 UNL1     -0.3018
     21 C         -7.830763   0.596759   -2.479574 C.3        1 UNL1     0.0026
     22 C         -6.395958   0.726194   -2.993847 C.3        1 UNL1     0.0016
     23 C         -9.296956   1.621064   -0.789872 C.3        1 UNL1     0.0012
     24 C         -9.878746   0.201411   -0.878531 C.3        1 UNL1     -0.0339
     25 C         -11.326516   0.21827   -1.395963 C.3        1 UNL1     -0.0615
     26 C         -8.986807   -0.673967   -1.741629 C.3        1 UNL1     -0.0615
     27 C         -4.593611   5.131352   -8.588124 C.ar        1 UNL1     0.1347
     28 C         -3.211161   5.120397   -8.640663 C.ar        1 UNL1     0.0342
     29 C         -2.59567   4.297986   -7.673204 C.ar        1 UNL1     0.1435
     30 C         -3.317868   3.591804   -6.710418 C.ar        1 UNL1     0.0774
     31 O         -1.253263   4.268165   -7.524677 O.3        1 UNL1     -0.4436
     32 C         -1.045856   3.736228   -6.207521 C.3        1 UNL1     0.3143
     33 C         -2.306189   2.956219   -5.892309 C.2        1 UNL1     0.2504
     34 C         -2.354319   6.010033   -9.497675 C.3        1 UNL1     -0.0327
     35 O         0.022324   2.785179   -6.295537 O.2        1 UNL1     -0.4528
     36 C         1.748843   2.843628   -2.915625 C.3        1 UNL1     0.0854
     37 C         1.144069   2.57912   -1.483213 C.3        1 UNL1     0.0236
     38 C         1.885073   1.435829   -0.637314 C.3        1 UNL1     0.1131
     39 C         2.145694   0.019388   -1.291562 C.3        1 UNL1     0.0200
     40 C         0.953559   -0.730747   -2.185179 C.3        1 UNL1     0.0661
     41 C         -0.656976   -0.955936   -1.7024 C.3        1 UNL1     0.0091
     42 C         -2.200574   -1.00343   -2.692578 C.3        1 UNL1     0.0661
     43 C         -6.799063   4.614235   -7.522186 C.2        1 UNL1     0.2131
     44 O         -7.41265   5.531211   -8.03736 O.2        1 UNL1     -0.2851
     45 O         -5.304789   5.839873   -9.554387 O.3        1 UNL1     -0.5056
     46 O         -2.440418   2.009188   -5.150036 O.2        1 UNL1     -0.2836
     47 C         -2.56773   -2.488819   -4.878129 C.3        1 UNL1     -0.0566
     48 O         -2.715102   -2.232607   -2.041808 O.3        1 UNL1     -0.3909
     49 C         -0.931983   -0.083304   -0.498084 C.3        1 UNL1     -0.0577
     50 O         0.999452   -0.311172   -3.534095 O.3        1 UNL1     -0.3910
     51 O         2.740769   1.937372   -3.34249 O.3        1 UNL1     -0.3753
     52 C         -0.41018   2.749428   -1.467348 C.3        1 UNL1     -0.0564
     53 O         1.531179   1.443132   0.821121 O.3        1 UNL1     -0.4608
     54 C         1.389283   0.33194   1.610455 C.2        1 UNL1     0.3042
     55 O         0.872263   0.268707   2.725143 O.2        1 UNL1     -0.2512
     56 C         1.889418   -0.930293   0.967534 C.3        1 UNL1     0.0332
     57 C         3.629561   0.029483   -1.888395 C.3        1 UNL1     -0.0567
     58 C         -0.959159   4.950641   -5.253993 C.3        1 UNL1     0.0210
     59 C         2.595091   0.609433   -2.841271 C.3        1 UNL1     0.0372
     60 C         0.74834   2.933546   -4.013838 C.2        1 UNL1     -0.0208
     61 C         0.752946   2.394426   -5.233703 C.2        1 UNL1     0.0882
     62 H         -2.60179   -0.354581   -4.710237 H        1 UNL1     0.0365
     63 H         -4.192015   0.14682   -5.889223 H        1 UNL1     0.0576
     64 H         -6.672336   -1.543048   -5.189844 H        1 UNL1     0.0615
     65 H         -6.204476   0.830998   -7.165413 H        1 UNL1     0.0622
     66 H         2.206248   3.840353   -2.842367 H        1 UNL1     0.0645
     67 H         1.409359   3.483787   -0.908967 H        1 UNL1     0.0362
     68 H         2.87906   1.897477   -0.535369 H        1 UNL1     0.0741
     69 H         2.338482   -0.697366   -0.504476 H        1 UNL1     0.0359
     70 H         1.350326   -1.763855   -2.203199 H        1 UNL1     0.0600
     71 H         -0.579901   -1.95611   -1.232647 H        1 UNL1     0.0348
     72 H         -1.380028   -1.18807   -3.401046 H        1 UNL1     0.0602
     73 H         0.000891   3.639325   -3.748424 H        1 UNL1     0.0628
     74 H         1.448285   1.621942   -5.56387 H        1 UNL1     0.1022
     75 H         -10.349621   1.097663   -6.55451 H        1 UNL1     0.0279
     76 H         -10.287723   -0.076303   -7.808014 H        1 UNL1     0.0279
     77 H         -9.950023   -0.5016   -6.081636 H        1 UNL1     0.0279
     78 H         -9.151033   2.782252   -6.14406 H        1 UNL1     0.1553
     79 H         -8.251318   1.995943   -4.56341 H        1 UNL1     0.1484
     80 H         -5.754101   3.04645   -1.898857 H        1 UNL1     0.0317
     81 H         -6.32775   4.141651   -3.148412 H        1 UNL1     0.0317
     82 H         -8.654445   3.220799   -2.968898 H        1 UNL1     0.0428
     83 H         -8.052208   3.838614   -1.446624 H        1 UNL1     0.0428
     84 H         -7.891888   -0.378663   -1.987003 H        1 UNL1     0.0428
     85 H         -8.576781   0.536624   -3.284036 H        1 UNL1     0.0428
     86 H         -6.20028   -0.179642   -3.537133 H        1 UNL1     0.0317
     87 H         -5.691233   0.676188   -2.154824 H        1 UNL1     0.0317
     88 H         -9.03866   1.82817   0.256878 H        1 UNL1     0.0429
     89 H         -10.03767   2.372207   -1.093025 H        1 UNL1     0.0429
     90 H         -9.869762   -0.253399   0.119106 H        1 UNL1     0.0308
     91 H         -11.451295   -0.453432   -2.250567 H        1 UNL1     0.0233
     92 H         -12.022512   -0.0734   -0.605945 H        1 UNL1     0.0233
     93 H         -11.640151   1.215746   -1.726886 H        1 UNL1     0.0233
     94 H         -9.496553   -1.613771   -1.97988 H        1 UNL1     0.0233
     95 H         -8.761474   -0.164672   -2.682801 H        1 UNL1     0.0233
     96 H         -8.047242   -0.909509   -1.23398 H        1 UNL1     0.0233
     97 H         -1.481136   5.48959   -9.879671 H        1 UNL1     0.0280
     98 H         -2.893793   6.379324   -10.379632 H        1 UNL1     0.0280
     99 H         -2.010192   6.873305   -8.904857 H        1 UNL1     0.0280
     100 H         -6.04413   5.380263   -9.911816 H        1 UNL1     0.2922
     101 H         -1.491237   -2.502024   -4.708878 H        1 UNL1     0.0236
     102 H         -2.818659   -2.640559   -5.927411 H        1 UNL1     0.0236
     103 H         -2.94259   -3.39085   -4.366257 H        1 UNL1     0.0236
     104 H         -2.052241   -2.516813   -1.382404 H        1 UNL1     0.2098
     105 H         -1.271291   0.920954   -0.739224 H        1 UNL1     0.0234
     106 H         -1.584173   -0.532828   0.250584 H        1 UNL1     0.0234
     107 H         0.0   0.0   0.0 H        1 UNL1     0.0234
     108 H         1.767799   -0.749275   -3.948193 H        1 UNL1     0.2098
     109 H         -0.905216   1.992665   -0.842879 H        1 UNL1     0.0234
     110 H         -0.730441   3.749108   -1.154592 H        1 UNL1     0.0234
     111 H         -0.840237   2.63404   -2.471182 H        1 UNL1     0.0234
     112 H         2.962758   -0.847968   0.771295 H        1 UNL1     0.0342
     113 H         1.668519   -1.81125   1.568334 H        1 UNL1     0.0342
     114 H         1.378687   -1.049217   0.002041 H        1 UNL1     0.0342
     115 H         3.640905   -0.217933   -2.958836 H        1 UNL1     0.0234
     116 H         4.150937   0.980889   -1.76574 H        1 UNL1     0.0234
     117 H         4.273949   -0.767285   -1.478681 H        1 UNL1     0.0234
     118 H         -1.88235   5.079992   -4.66239 H        1 UNL1     0.0309
     119 H         -0.102154   4.90316   -4.574661 H        1 UNL1     0.0309
     120 H         -0.868094   5.901107   -5.791047 H        1 UNL1     0.0309
     121 H         3.591342   0.174647   -2.765098 H        1 UNL1     0.0524
     122 H         2.146193   0.58925   -1.834235 H        1 UNL1     0.0524
     123 H         1.979004   0.019334   -3.513814 H        1 UNL1     0.0524
@<TRIPOS>BOND
     1     1     2    1
     2     1    42    1
     3     2     3    2
     4     3     4    1
     5     4     5    2
     6     5     7    1
     7     6    75    1
     8     6    76    1
     9     6    77    1
    10     7     9   am
    11     9    10    1
    12    10    11    2
    13    10    43    1
    14    11    14    1
    15    11    15    1
    16    12    13   ar
    17    12    27   ar
    18    12    43    1
    19    13    14    1
    20    13    30   ar
    21    14    17    2
    22    15    16    1
    23    16    17    1
    24    16    18    1
    25    16    22    1
    26    18    19    1
    27    19    20    1
    28    20    21    1
    29    21    22    1
    30    23    24    1
    31    23    88    1
    32    23    89    1
    33    24    25    1
    34    24    26    1
    35    24    90    1
    36    25    91    1
    37    25    92    1
    38    25    93    1
    39    26    94    1
    40    26    95    1
    41    26    96    1
    42    27    28   ar
    43    28    29   ar
    44    29    30   ar
    45    29    31    1
    46    30    33    1
    47    31    32    1
    48    32    33    1
    49    32    35    1
    50    34    97    1
    51    34    98    1
    52    34    99    1
    53    35    61    1
    54    36    37    1
    55    36    60    1
    56    37    38    1
    57    38    39    1
    58    39    40    1
    59    40    41    1
    60    41    42    1
    61    45   100    1
    62    47   101    1
    63    47   102    1
    64    47   103    1
    65    48   104    1
    66    49   105    1
    67    49   106    1
    68    49   107    1
    69    50   108    1
    70    51    59    1
    71    52   109    1
    72    52   110    1
    73    52   111    1
    74    53    54    1
    75    54    55    2
    76    54    56    1
    77    56   112    1
    78    56   113    1
    79    56   114    1
    80    57   115    1
    81    57   116    1
    82    57   117    1
    83    58   118    1
    84    58   119    1
    85    58   120    1
    86    59   121    1
    87    59   122    1
    88    59   123    1
    89    60    61    2
    90     1    47    1
    91     1    62    1
    92     2    63    1
    93     3    64    1
    94     4    65    1
    95     5     6    1
    96     7     8    2
    97     9    78    1
    98    15    79    1
    99    18    80    1
   100    18    81    1
   101    19    82    1
   102    19    83    1
   103    20    23    1
   104    21    84    1
   105    21    85    1
   106    22    86    1
   107    22    87    1
   108    27    45    1
   109    28    34    1
   110    32    58    1
   111    33    46    2
   112    36    51    1
   113    36    66    1
   114    37    52    1
   115    37    67    1
   116    38    53    1
   117    38    68    1
   118    42    48    1
   119    42    72    1
   120    43    44    2
   121    60    73    1
   122    61    74    1
   123    39    69    1
   124    39    57    1
   125    40    70    1
   126    40    50    1
   127    41    71    1
   128    41    49    1
