@<TRIPOS>MOLECULE
*****
 123 128 0 0 0
SMALL
GASTEIGER

@<TRIPOS>ATOM
     1 C         1.394556   -2.889855   4.399534 C.3        1 UNL1     0.0009
     2 C         0.850725   -4.238056   5.550029 C.2        1 UNL1     -0.0787
     3 C         0.366378   -4.663742   6.846272 C.2        1 UNL1     -0.0649
     4 C         -0.115784   -6.216467   7.318418 C.2        1 UNL1     -0.0542
     5 C         -0.862294   -6.963448   8.26278 C.2        1 UNL1     0.0115
     6 C         -1.623488   -6.87739   9.614261 C.3        1 UNL1     -0.0348
     7 C         -1.280985   -8.471226   7.904601 C.2        1 UNL1     0.2441
     8 O         -0.701773   -9.448393   8.358674 O.2        1 UNL1     -0.2702
     9 N         -2.515819   -8.598704   7.24499 N.am        1 UNL1     -0.2772
     10 C         -2.345845   -8.495541   5.883451 C.2        1 UNL1     0.1049
     11 C         -2.286063   -7.269721   5.395584 C.2        1 UNL1     0.0801
     12 C         -0.963729   -9.359522   3.98592 C.ar        1 UNL1     0.0753
     13 C         -0.756002   -7.992128   3.617557 C.ar        1 UNL1     0.0305
     14 C         -1.519079   -6.909218   4.234055 C.2        1 UNL1     0.0924
     15 N         -2.572542   -6.093048   5.978592 N.pl3        1 UNL1     -0.3170
     16 C         -2.509629   -5.073662   4.965108 C.3        1 UNL1     0.1275
     17 N         -1.52984   -5.609911   3.950133 N.2        1 UNL1     -0.2557
     18 C         -3.866862   -5.043879   4.26888 C.3        1 UNL1     0.0016
     19 C         -4.94609   -4.821812   5.316517 C.3        1 UNL1     0.0026
     20 N         -4.681067   -3.564388   6.001846 N.3        1 UNL1     -0.3018
     21 C         -3.37168   -3.474223   6.651266 C.3        1 UNL1     0.0026
     22 C         -2.302607   -3.6957   5.579852 C.3        1 UNL1     0.0016
     23 C         -5.800626   -3.112228   6.803583 C.3        1 UNL1     0.0012
     24 C         -7.114406   -3.244517   6.017303 C.3        1 UNL1     -0.0339
     25 C         -6.870883   -3.180623   4.500507 C.3        1 UNL1     -0.0615
     26 C         -7.832813   -4.522281   6.414783 C.3        1 UNL1     -0.0615
     27 C         -0.32133   -10.394537   3.310504 C.ar        1 UNL1     0.1347
     28 C         0.517182   -10.188935   2.229451 C.ar        1 UNL1     0.0342
     29 C         0.745057   -8.832142   1.91584 C.ar        1 UNL1     0.1435
     30 C         0.136779   -7.783354   2.606681 C.ar        1 UNL1     0.0774
     31 O         1.449906   -8.470504   0.821577 O.3        1 UNL1     -0.4436
     32 C         1.071257   -7.106894   0.580612 C.3        1 UNL1     0.3143
     33 C         0.581086   -6.589636   1.917919 C.2        1 UNL1     0.2504
     34 C         1.038887   -11.25222   1.303521 C.3        1 UNL1     -0.0327
     35 O         2.266602   -6.382163   0.265704 O.2        1 UNL1     -0.4528
     36 C         1.203174   -3.585684   -2.0703 C.3        1 UNL1     0.0854
     37 C         0.13749   -2.446068   -1.839832 C.3        1 UNL1     0.0236
     38 C         0.687805   -0.954139   -2.047308 C.3        1 UNL1     0.1131
     39 C         2.011859   -0.496433   -1.312696 C.3        1 UNL1     0.0200
     40 C         2.271312   -0.893673   0.286467 C.3        1 UNL1     0.0661
     41 C         1.17208   -0.664989   1.558081 C.3        1 UNL1     0.0091
     42 C         0.89911   -1.643561   3.085591 C.3        1 UNL1     0.0661
     43 C         -1.954999   -9.644376   5.052926 C.2        1 UNL1     0.2131
     44 O         -2.505678   -10.721759   5.189801 O.2        1 UNL1     -0.2851
     45 O         -0.542655   -11.694236   3.761323 O.3        1 UNL1     -0.5056
     46 O         0.57858   -5.45141   2.33058 O.2        1 UNL1     -0.2836
     47 C         2.817813   -2.399137   4.778369 C.3        1 UNL1     -0.0566
     48 O         0.886618   -0.459452   3.978253 O.3        1 UNL1     -0.3909
     49 C         -0.191526   -0.365368   0.976444 C.3        1 UNL1     -0.0577
     50 O         2.877658   -2.165806   0.394839 O.3        1 UNL1     -0.3910
     51 O         2.533345   -3.156958   -2.255428 O.3        1 UNL1     -0.3753
     52 C         -0.866241   -2.810457   -0.6976 C.3        1 UNL1     -0.0564
     53 O         -0.397824   0.074763   -2.170173 O.3        1 UNL1     -0.4608
     54 C         -1.25482   0.449871   -1.168783 C.2        1 UNL1     0.3042
     55 O         -1.988204   -0.278608   -0.501472 O.2        1 UNL1     -0.2512
     56 C         -1.210223   1.918912   -0.857908 C.3        1 UNL1     0.0332
     57 C         3.224681   -0.695271   -2.336269 C.3        1 UNL1     -0.0567
     58 C         -0.120236   -7.151286   -0.404225 C.3        1 UNL1     0.0210
     59 C         3.291366   -3.936721   -3.179137 C.3        1 UNL1     0.0372
     60 C         1.234118   -4.639498   -1.019739 C.2        1 UNL1     -0.0208
     61 C         2.266799   -5.210159   -0.397917 C.2        1 UNL1     0.0882
     62 H         1.522146   -3.640844   3.61058 H        1 UNL1     0.0365
     63 H         1.033447   -5.119382   4.931687 H        1 UNL1     0.0576
     64 H         0.106523   -3.943316   7.625097 H        1 UNL1     0.0615
     65 H         0.257925   -6.860201   6.517523 H        1 UNL1     0.0622
     66 H         0.875378   -4.087948   -2.991346 H        1 UNL1     0.0645
     67 H         -0.552039   -2.5467   -2.695976 H        1 UNL1     0.0362
     68 H         0.948218   -1.001055   -3.115721 H        1 UNL1     0.0741
     69 H         2.045089   0.584794   -1.296836 H        1 UNL1     0.0359
     70 H         3.080791   -0.179662   0.531399 H        1 UNL1     0.0600
     71 H         1.485044   0.339016   1.905909 H        1 UNL1     0.0348
     72 H         1.901957   -1.916134   2.725986 H        1 UNL1     0.0602
     73 H         0.252996   -5.019368   -0.877097 H        1 UNL1     0.0628
     74 H         3.293376   -4.845292   -0.445341 H        1 UNL1     0.1022
     75 H         -0.908269   -6.72311   10.457881 H        1 UNL1     0.0279
     76 H         -2.309087   -6.041305   9.732519 H        1 UNL1     0.0279
     77 H         -2.092801   -7.830342   9.899442 H        1 UNL1     0.0279
     78 H         -3.137279   -7.846153   7.534007 H        1 UNL1     0.1553
     79 H         -3.133175   -6.003281   6.805976 H        1 UNL1     0.1484
     80 H         -3.866334   -4.243969   3.518607 H        1 UNL1     0.0317
     81 H         -4.050602   -5.979324   3.72959 H        1 UNL1     0.0317
     82 H         -4.999451   -5.657646   6.029571 H        1 UNL1     0.0428
     83 H         -5.905653   -4.805763   4.7988 H        1 UNL1     0.0428
     84 H         -3.166122   -2.492684   7.089602 H        1 UNL1     0.0428
     85 H         -3.287249   -4.168023   7.499104 H        1 UNL1     0.0428
     86 H         -1.363988   -3.491717   6.060865 H        1 UNL1     0.0317
     87 H         -2.371095   -2.912794   4.814696 H        1 UNL1     0.0317
     88 H         -5.861432   -3.749492   7.695487 H        1 UNL1     0.0429
     89 H         -5.650501   -2.082762   7.153494 H        1 UNL1     0.0429
     90 H         -7.785256   -2.42396   6.298122 H        1 UNL1     0.0308
     91 H         -6.670193   -2.156233   4.17271 H        1 UNL1     0.0233
     92 H         -6.030847   -3.818995   4.216906 H        1 UNL1     0.0233
     93 H         -7.733363   -3.535994   3.923727 H        1 UNL1     0.0233
     94 H         -8.913719   -4.350139   6.457753 H        1 UNL1     0.0233
     95 H         -7.64503   -5.302945   5.672312 H        1 UNL1     0.0233
     96 H         -7.500501   -4.878916   7.393736 H        1 UNL1     0.0233
     97 H         1.008675   -10.938259   0.264412 H        1 UNL1     0.0280
     98 H         2.087167   -11.50376   1.511109 H        1 UNL1     0.0280
     99 H         0.427907   -12.163866   1.406964 H        1 UNL1     0.0280
     100 H         -1.02634   -11.752321   4.566492 H        1 UNL1     0.2922
     101 H         3.564384   -3.008185   4.269106 H        1 UNL1     0.0236
     102 H         2.985827   -2.360891   5.854144 H        1 UNL1     0.0236
     103 H         3.008511   -1.371188   4.427445 H        1 UNL1     0.0236
     104 H         0.755908   0.330695   3.418295 H        1 UNL1     0.2098
     105 H         -0.841448   -1.232088   0.88584 H        1 UNL1     0.0234
     106 H         -0.721848   0.455728   1.458612 H        1 UNL1     0.0234
     107 H         0.0   0.0   0.0 H        1 UNL1     0.0234
     108 H         3.579428   -2.096078   1.070431 H        1 UNL1     0.2098
     109 H         -0.524857   -2.455842   0.284957 H        1 UNL1     0.0234
     110 H         -1.88237   -2.447233   -0.885465 H        1 UNL1     0.0234
     111 H         -0.986564   -3.897263   -0.596003 H        1 UNL1     0.0234
     112 H         -2.132221   2.220308   -0.351523 H        1 UNL1     0.0342
     113 H         -0.334987   2.186239   -0.267705 H        1 UNL1     0.0342
     114 H         -1.152166   2.468902   -1.807279 H        1 UNL1     0.0342
     115 H         3.00141   -0.265474   -3.32248 H        1 UNL1     0.0234
     116 H         4.168089   -0.263734   -1.995965 H        1 UNL1     0.0234
     117 H         3.408723   -1.750839   -2.600553 H        1 UNL1     0.0234
     118 H         0.200681   -7.39302   -1.432614 H        1 UNL1     0.0309
     119 H         -0.903688   -7.852349   -0.099405 H        1 UNL1     0.0309
     120 H         -0.610609   -6.177945   -0.514893 H        1 UNL1     0.0309
     121 H         2.636382   -4.715792   -3.568239 H        1 UNL1     0.0524
     122 H         3.645451   -3.341511   -4.037266 H        1 UNL1     0.0524
     123 H         4.148179   -4.381563   -2.681059 H        1 UNL1     0.0524
@<TRIPOS>BOND
     1     1     2    1
     2     1    42    1
     3     2     3    2
     4     3     4    1
     5     4     5    2
     6     5     7    1
     7     6    75    1
     8     6    76    1
     9     6    77    1
    10     7     9   am
    11     9    10    1
    12    10    11    2
    13    10    43    1
    14    11    14    1
    15    11    15    1
    16    12    13   ar
    17    12    27   ar
    18    12    43    1
    19    13    14    1
    20    13    30   ar
    21    14    17    2
    22    15    16    1
    23    16    17    1
    24    16    18    1
    25    16    22    1
    26    18    19    1
    27    19    20    1
    28    20    21    1
    29    21    22    1
    30    23    24    1
    31    23    88    1
    32    23    89    1
    33    24    25    1
    34    24    26    1
    35    24    90    1
    36    25    91    1
    37    25    92    1
    38    25    93    1
    39    26    94    1
    40    26    95    1
    41    26    96    1
    42    27    28   ar
    43    28    29   ar
    44    29    30   ar
    45    29    31    1
    46    30    33    1
    47    31    32    1
    48    32    33    1
    49    32    35    1
    50    34    97    1
    51    34    98    1
    52    34    99    1
    53    35    61    1
    54    36    37    1
    55    36    60    1
    56    37    38    1
    57    38    39    1
    58    39    40    1
    59    40    41    1
    60    41    42    1
    61    45   100    1
    62    47   101    1
    63    47   102    1
    64    47   103    1
    65    48   104    1
    66    49   105    1
    67    49   106    1
    68    49   107    1
    69    50   108    1
    70    51    59    1
    71    52   109    1
    72    52   110    1
    73    52   111    1
    74    53    54    1
    75    54    55    2
    76    54    56    1
    77    56   112    1
    78    56   113    1
    79    56   114    1
    80    57   115    1
    81    57   116    1
    82    57   117    1
    83    58   118    1
    84    58   119    1
    85    58   120    1
    86    59   121    1
    87    59   122    1
    88    59   123    1
    89    60    61    2
    90     1    47    1
    91     1    62    1
    92     2    63    1
    93     3    64    1
    94     4    65    1
    95     5     6    1
    96     7     8    2
    97     9    78    1
    98    15    79    1
    99    18    80    1
   100    18    81    1
   101    19    82    1
   102    19    83    1
   103    20    23    1
   104    21    84    1
   105    21    85    1
   106    22    86    1
   107    22    87    1
   108    27    45    1
   109    28    34    1
   110    32    58    1
   111    33    46    2
   112    36    51    1
   113    36    66    1
   114    37    52    1
   115    37    67    1
   116    38    53    1
   117    38    68    1
   118    42    48    1
   119    42    72    1
   120    43    44    2
   121    60    73    1
   122    61    74    1
   123    39    69    1
   124    39    57    1
   125    40    70    1
   126    40    50    1
   127    41    71    1
   128    41    49    1
