@<TRIPOS>MOLECULE
*****
 123 128 0 0 0
SMALL
GASTEIGER

@<TRIPOS>ATOM
     1 C         -0.980956   -3.613924   -2.977734 C.3        1 UNL1     0.0009
     2 C         -0.398319   -4.043676   -4.684452 C.2        1 UNL1     -0.0787
     3 C         -0.67162   -4.241209   -6.092405 C.2        1 UNL1     -0.0649
     4 C         0.436104   -4.557628   -7.333044 C.2        1 UNL1     -0.0542
     5 C         0.65368   -4.521181   -8.732476 C.2        1 UNL1     0.0115
     6 C         -0.039849   -4.313904   -10.107022 C.3        1 UNL1     -0.0348
     7 C         2.159178   -4.581235   -9.286426 C.2        1 UNL1     0.2441
     8 O         2.655929   -5.59638   -9.754662 O.2        1 UNL1     -0.2702
     9 N         2.78106   -3.329755   -9.438779 N.am        1 UNL1     -0.2772
     10 C         3.400021   -2.955434   -8.268269 C.2        1 UNL1     0.1049
     11 C         2.629383   -2.388377   -7.357893 C.2        1 UNL1     0.0801
     12 C         4.952855   -3.786416   -6.491893 C.ar        1 UNL1     0.0753
     13 C         3.980632   -3.337774   -5.542098 C.ar        1 UNL1     0.0305
     14 C         2.847814   -2.505806   -5.941604 C.2        1 UNL1     0.0924
     15 N         1.373269   -1.920995   -7.459179 N.pl3        1 UNL1     -0.3170
     16 C         1.055428   -1.245084   -6.229393 C.3        1 UNL1     0.1275
     17 N         1.916157   -1.923668   -5.191899 N.2        1 UNL1     -0.2557
     18 C         1.581736   0.181967   -6.348673 C.3        1 UNL1     0.0016
     19 C         0.978989   0.82046   -7.589887 C.3        1 UNL1     0.0026
     20 N         -0.472014   0.805803   -7.465783 N.3        1 UNL1     -0.3018
     21 C         -1.067139   -0.519837   -7.284471 C.3        1 UNL1     0.0026
     22 C         -0.45084   -1.140928   -6.029754 C.3        1 UNL1     0.0016
     23 C         -1.130147   1.649916   -8.443012 C.3        1 UNL1     0.0012
     24 C         -0.094719   2.323851   -9.357045 C.3        1 UNL1     -0.0339
     25 C         1.282907   2.408547   -8.679528 C.3        1 UNL1     -0.0615
     26 C         -0.019864   1.593297   -10.686507 C.3        1 UNL1     -0.0615
     27 C         6.093096   -4.476118   -6.086579 C.ar        1 UNL1     0.1347
     28 C         6.388411   -4.740006   -4.760984 C.ar        1 UNL1     0.0342
     29 C         5.393124   -4.332004   -3.847692 C.ar        1 UNL1     0.1435
     30 C         4.228637   -3.672164   -4.242409 C.ar        1 UNL1     0.0774
     31 O         5.582867   -4.419373   -2.513011 O.3        1 UNL1     -0.4436
     32 C         4.623129   -3.512219   -1.950118 C.3        1 UNL1     0.3143
     33 C         3.541392   -3.376696   -3.002588 C.2        1 UNL1     0.2504
     34 C         7.702048   -5.247098   -4.234376 C.3        1 UNL1     -0.0327
     35 O         4.02854   -4.166789   -0.822619 O.2        1 UNL1     -0.4528
     36 C         3.082358   -1.405552   1.603982 C.3        1 UNL1     0.0854
     37 C         2.148412   -0.155302   1.375636 C.3        1 UNL1     0.0236
     38 C         0.941027   -0.013618   2.421529 C.3        1 UNL1     0.1131
     39 C         -0.008416   -1.248586   2.696633 C.3        1 UNL1     0.0200
     40 C         -0.565508   -2.184004   1.432878 C.3        1 UNL1     0.0661
     41 C         -1.290819   -1.605373   0.012765 C.3        1 UNL1     0.0091
     42 C         -1.253993   -2.267956   -1.697507 C.3        1 UNL1     0.0661
     43 C         4.751376   -3.414752   -7.914402 C.2        1 UNL1     0.2131
     44 O         5.650431   -3.380441   -8.734927 O.2        1 UNL1     -0.2851
     45 O         6.966535   -4.917716   -7.078311 O.3        1 UNL1     -0.5056
     46 O         2.370918   -3.107435   -2.849807 O.2        1 UNL1     -0.2836
     47 C         -1.780947   -4.796075   -2.367394 C.3        1 UNL1     -0.0566
     48 O         -2.717942   -2.14379   -1.898882 O.3        1 UNL1     -0.3909
     49 C         -1.050188   -0.115461   -0.085989 C.3        1 UNL1     -0.0577
     50 O         0.358651   -3.206996   1.121202 O.3        1 UNL1     -0.3910
     51 O         2.64776   -2.329874   2.575673 O.3        1 UNL1     -0.3753
     52 C         1.974785   0.171498   -0.143576 C.3        1 UNL1     -0.0564
     53 O         0.290949   1.338994   2.408683 O.3        1 UNL1     -0.4608
     54 C         0.749552   2.435134   1.725975 C.2        1 UNL1     0.3042
     55 O         0.660742   3.615371   2.062118 O.2        1 UNL1     -0.2512
     56 C         1.482539   2.092065   0.460373 C.3        1 UNL1     0.0332
     57 C         0.544445   -2.002257   3.994516 C.3        1 UNL1     -0.0567
     58 C         5.343704   -2.152452   -1.797369 C.3        1 UNL1     0.0210
     59 C         2.399444   -3.645597   2.082644 C.3        1 UNL1     0.0372
     60 C         3.396742   -2.18798   0.377553 C.2        1 UNL1     -0.0208
     61 C         3.404611   -3.505578   0.171111 C.2        1 UNL1     0.0882
     62 H         0.050773   -3.716673   -2.620399 H        1 UNL1     0.0365
     63 H         0.643786   -4.301829   -4.484844 H        1 UNL1     0.0576
     64 H         -1.654962   -4.032036   -6.51948 H        1 UNL1     0.0615
     65 H         1.352179   -4.829175   -6.801489 H        1 UNL1     0.0622
     66 H         4.037119   -0.978775   1.942123 H        1 UNL1     0.0645
     67 H         2.780918   0.705965   1.652613 H        1 UNL1     0.0362
     68 H         1.516721   0.124229   3.349482 H        1 UNL1     0.0741
     69 H         -0.923992   -0.889982   3.147778 H        1 UNL1     0.0359
     70 H         -1.39936   -2.708789   1.93721 H        1 UNL1     0.0600
     71 H         -2.35623   -1.633615   0.314524 H        1 UNL1     0.0348
     72 H         -0.966642   -3.103209   -1.042452 H        1 UNL1     0.0602
     73 H         3.76718   -1.531496   -0.370145 H        1 UNL1     0.0628
     74 H         2.98982   -4.240465   0.861855 H        1 UNL1     0.1022
     75 H         -0.085488   -3.227957   -10.363288 H        1 UNL1     0.0279
     76 H         0.463233   -4.738035   -10.9731 H        1 UNL1     0.0279
     77 H         -1.10753   -4.577385   -10.088682 H        1 UNL1     0.0279
     78 H         2.080352   -2.623577   -9.654181 H        1 UNL1     0.1553
     79 H         0.930217   -1.699114   -8.331766 H        1 UNL1     0.1484
     80 H         1.314725   0.73845   -5.442142 H        1 UNL1     0.0317
     81 H         2.675156   0.191763   -6.411826 H        1 UNL1     0.0317
     82 H         1.302854   0.309644   -8.508632 H        1 UNL1     0.0428
     83 H         1.368887   1.83661   -7.65674 H        1 UNL1     0.0428
     84 H         -2.147978   -0.495847   -7.114115 H        1 UNL1     0.0428
     85 H         -0.952067   -1.145578   -8.180308 H        1 UNL1     0.0428
     86 H         -1.002065   -2.046062   -5.854049 H        1 UNL1     0.0317
     87 H         -0.686592   -0.525892   -5.152686 H        1 UNL1     0.0317
     88 H         -1.780306   1.015578   -9.059618 H        1 UNL1     0.0429
     89 H         -1.774023   2.394588   -7.957562 H        1 UNL1     0.0429
     90 H         -0.431155   3.34051   -9.592475 H        1 UNL1     0.0308
     91 H         1.471476   1.533109   -8.050917 H        1 UNL1     0.0233
     92 H         2.07615   2.491496   -9.426183 H        1 UNL1     0.0233
     93 H         1.37729   3.290067   -8.033889 H        1 UNL1     0.0233
     94 H         -1.009283   1.215546   -10.966131 H        1 UNL1     0.0233
     95 H         0.313516   2.27837   -11.471042 H        1 UNL1     0.0233
     96 H         0.672046   0.747748   -10.63879 H        1 UNL1     0.0233
     97 H         7.6447   -5.511459   -3.182684 H        1 UNL1     0.0280
     98 H         8.033802   -6.155027   -4.754819 H        1 UNL1     0.0280
     99 H         8.472802   -4.468072   -4.353333 H        1 UNL1     0.0280
     100 H         7.876572   -4.886974   -6.84059 H        1 UNL1     0.2922
     101 H         -1.671785   -5.678269   -2.997848 H        1 UNL1     0.0236
     102 H         -2.82657   -4.554427   -2.179612 H        1 UNL1     0.0236
     103 H         -1.382694   -5.102605   -1.385749 H        1 UNL1     0.0236
     104 H         -2.890633   -2.213056   -2.858231 H        1 UNL1     0.2098
     105 H         -1.357413   0.327484   -1.030036 H        1 UNL1     0.0234
     106 H         -1.441777   0.465384   0.748999 H        1 UNL1     0.0234
     107 H         0.0   0.0   0.0 H        1 UNL1     0.0234
     108 H         1.068699   -3.170342   1.790723 H        1 UNL1     0.2098
     109 H         0.939482   0.029849   -0.483862 H        1 UNL1     0.0234
     110 H         2.312933   1.179088   -0.408458 H        1 UNL1     0.0234
     111 H         2.587211   -0.488652   -0.772132 H        1 UNL1     0.0234
     112 H         0.783293   2.072601   -0.381068 H        1 UNL1     0.0342
     113 H         2.307764   2.775735   0.266874 H        1 UNL1     0.0342
     114 H         1.904604   1.083697   0.57091 H        1 UNL1     0.0342
     115 H         1.620571   -1.833013   4.137686 H        1 UNL1     0.0234
     116 H         0.04127   -1.718194   4.920893 H        1 UNL1     0.0234
     117 H         0.51083   -3.102272   3.912186 H        1 UNL1     0.0234
     118 H         5.849508   -2.058713   -0.820445 H        1 UNL1     0.0309
     119 H         6.067147   -1.957562   -2.595399 H        1 UNL1     0.0309
     120 H         4.648981   -1.305447   -1.804383 H        1 UNL1     0.0309
     121 H         2.66206   -4.348707   2.872597 H        1 UNL1     0.0524
     122 H         1.33687   -3.806028   1.835184 H        1 UNL1     0.0524
     123 H         3.000072   -3.834852   1.197477 H        1 UNL1     0.0524
@<TRIPOS>BOND
     1     1     2    1
     2     1    42    1
     3     2     3    2
     4     3     4    1
     5     4     5    2
     6     5     7    1
     7     6    75    1
     8     6    76    1
     9     6    77    1
    10     7     9   am
    11     9    10    1
    12    10    11    2
    13    10    43    1
    14    11    14    1
    15    11    15    1
    16    12    13   ar
    17    12    27   ar
    18    12    43    1
    19    13    14    1
    20    13    30   ar
    21    14    17    2
    22    15    16    1
    23    16    17    1
    24    16    18    1
    25    16    22    1
    26    18    19    1
    27    19    20    1
    28    20    21    1
    29    21    22    1
    30    23    24    1
    31    23    88    1
    32    23    89    1
    33    24    25    1
    34    24    26    1
    35    24    90    1
    36    25    91    1
    37    25    92    1
    38    25    93    1
    39    26    94    1
    40    26    95    1
    41    26    96    1
    42    27    28   ar
    43    28    29   ar
    44    29    30   ar
    45    29    31    1
    46    30    33    1
    47    31    32    1
    48    32    33    1
    49    32    35    1
    50    34    97    1
    51    34    98    1
    52    34    99    1
    53    35    61    1
    54    36    37    1
    55    36    60    1
    56    37    38    1
    57    38    39    1
    58    39    40    1
    59    40    41    1
    60    41    42    1
    61    45   100    1
    62    47   101    1
    63    47   102    1
    64    47   103    1
    65    48   104    1
    66    49   105    1
    67    49   106    1
    68    49   107    1
    69    50   108    1
    70    51    59    1
    71    52   109    1
    72    52   110    1
    73    52   111    1
    74    53    54    1
    75    54    55    2
    76    54    56    1
    77    56   112    1
    78    56   113    1
    79    56   114    1
    80    57   115    1
    81    57   116    1
    82    57   117    1
    83    58   118    1
    84    58   119    1
    85    58   120    1
    86    59   121    1
    87    59   122    1
    88    59   123    1
    89    60    61    2
    90     1    47    1
    91     1    62    1
    92     2    63    1
    93     3    64    1
    94     4    65    1
    95     5     6    1
    96     7     8    2
    97     9    78    1
    98    15    79    1
    99    18    80    1
   100    18    81    1
   101    19    82    1
   102    19    83    1
   103    20    23    1
   104    21    84    1
   105    21    85    1
   106    22    86    1
   107    22    87    1
   108    27    45    1
   109    28    34    1
   110    32    58    1
   111    33    46    2
   112    36    51    1
   113    36    66    1
   114    37    52    1
   115    37    67    1
   116    38    53    1
   117    38    68    1
   118    42    48    1
   119    42    72    1
   120    43    44    2
   121    60    73    1
   122    61    74    1
   123    39    69    1
   124    39    57    1
   125    40    70    1
   126    40    50    1
   127    41    71    1
   128    41    49    1
