@<TRIPOS>MOLECULE
*****
 123 128 0 0 0
SMALL
GASTEIGER

@<TRIPOS>ATOM
     1 C         5.166916   1.749837   0.490226 C.3        1 UNL1     0.0009
     2 C         6.603186   2.55645   -0.360386 C.2        1 UNL1     -0.0787
     3 C         7.8849   2.458692   -1.026493 C.2        1 UNL1     -0.0649
     4 C         8.761862   3.694174   -1.782059 C.2        1 UNL1     -0.0542
     5 C         9.78156   3.987249   -2.720889 C.2        1 UNL1     0.0115
     6 C         10.909655   3.362242   -3.586966 C.3        1 UNL1     -0.0348
     7 C         9.876399   5.470657   -3.327102 C.2        1 UNL1     0.2441
     8 O         10.700204   6.292407   -2.949482 O.2        1 UNL1     -0.2702
     9 N         9.125803   5.677708   -4.497524 N.am        1 UNL1     -0.2772
     10 C         7.84309   6.064036   -4.183328 C.2        1 UNL1     0.1049
     11 C         6.997602   5.092372   -3.891366 C.2        1 UNL1     0.0801
     12 C         6.544735   7.670095   -2.771881 C.ar        1 UNL1     0.0753
     13 C         5.786053   6.541915   -2.324422 C.ar        1 UNL1     0.0305
     14 C         5.903095   5.236378   -2.970121 C.2        1 UNL1     0.0924
     15 N         7.120474   3.763455   -4.050774 N.pl3        1 UNL1     -0.3170
     16 C         5.850836   3.163935   -3.736371 C.3        1 UNL1     0.1275
     17 N         5.214497   4.118818   -2.756067 N.2        1 UNL1     -0.2557
     18 C         4.997621   3.223087   -4.99979 C.3        1 UNL1     0.0016
     19 C         5.752338   2.539405   -6.128759 C.3        1 UNL1     0.0026
     20 N         6.022895   1.16128   -5.743271 N.3        1 UNL1     -0.3018
     21 C         6.786635   1.000791   -4.504193 C.3        1 UNL1     0.0026
     22 C         6.008049   1.690897   -3.382831 C.3        1 UNL1     0.0016
     23 C         6.467273   0.342079   -6.853262 C.3        1 UNL1     0.0012
     24 C         5.311609   0.092556   -7.835064 C.3        1 UNL1     -0.0339
     25 C         5.346767   1.084963   -9.008925 C.3        1 UNL1     -0.0615
     26 C         5.340895   -1.346831   -8.318887 C.3        1 UNL1     -0.0615
     27 C         6.339944   8.937628   -2.231938 C.ar        1 UNL1     0.1347
     28 C         5.381095   9.206758   -1.27161 C.ar        1 UNL1     0.0342
     29 C         4.679915   8.072054   -0.811222 C.ar        1 UNL1     0.1435
     30 C         4.899501   6.790183   -1.316998 C.ar        1 UNL1     0.0774
     31 O         3.639139   8.185208   0.042586 O.3        1 UNL1     -0.4436
     32 C         2.917695   6.952258   -0.099631 C.3        1 UNL1     0.3143
     33 C         3.931063   5.95949   -0.632277 C.2        1 UNL1     0.2504
     34 C         4.934077   10.57267   -0.83052 C.3        1 UNL1     -0.0327
     35 O         2.55753   6.515201   1.216619 O.2        1 UNL1     -0.4528
     36 C         -0.6852   4.582377   0.820406 C.3        1 UNL1     0.0854
     37 C         -0.990482   3.321912   -0.07712 C.3        1 UNL1     0.0236
     38 C         -1.590531   2.060571   0.710727 C.3        1 UNL1     0.1131
     39 C         -0.864282   1.529528   2.011813 C.3        1 UNL1     0.0200
     40 C         0.796955   1.384344   2.052474 C.3        1 UNL1     0.0661
     41 C         1.756158   0.615968   0.883227 C.3        1 UNL1     0.0091
     42 C         3.463503   0.97902   0.318806 C.3        1 UNL1     0.0661
     43 C         7.4945   7.462834   -3.893152 C.2        1 UNL1     0.2131
     44 O         7.893977   8.361148   -4.611614 O.2        1 UNL1     -0.2851
     45 O         7.151849   9.97301   -2.69045 O.3        1 UNL1     -0.5056
     46 O         3.947356   4.755933   -0.50175 O.2        1 UNL1     -0.2836
     47 C         5.563789   1.320156   1.928227 C.3        1 UNL1     -0.0566
     48 O         3.912402   -0.432002   0.400176 O.3        1 UNL1     -0.3909
     49 C         0.921663   0.383444   -0.356549 C.3        1 UNL1     -0.0577
     50 O         1.396998   2.60226   2.445351 O.3        1 UNL1     -0.3910
     51 O         -0.808842   4.392395   2.211826 O.3        1 UNL1     -0.3753
     52 C         0.053674   3.161903   -1.22998 C.3        1 UNL1     -0.0564
     53 O         -2.193166   1.021634   -0.189145 O.3        1 UNL1     -0.4608
     54 C         -2.427189   -0.285237   0.15034 C.2        1 UNL1     0.3042
     55 O         -1.857998   -1.284154   -0.287866 O.2        1 UNL1     -0.2512
     56 C         -3.466859   -0.451324   1.221888 C.3        1 UNL1     0.0332
     57 C         -1.58509   2.198111   3.273402 C.3        1 UNL1     -0.0567
     58 C         1.84213   7.197327   -1.183435 C.3        1 UNL1     0.0210
     59 C         -1.122083   5.571184   2.952233 C.3        1 UNL1     0.0372
     60 C         0.643591   5.211799   0.589526 C.2        1 UNL1     -0.0208
     61 C         1.556685   5.647061   1.45875 C.2        1 UNL1     0.0882
     62 H         4.690805   2.733888   0.577827 H        1 UNL1     0.0365
     63 H         6.336739   3.61017   -0.254796 H        1 UNL1     0.0576
     64 H         8.342702   1.491986   -1.247865 H        1 UNL1     0.0615
     65 H         8.27468   4.609396   -1.434918 H        1 UNL1     0.0622
     66 H         -1.430105   5.328803   0.510548 H        1 UNL1     0.0645
     67 H         -1.856278   3.631207   -0.688098 H        1 UNL1     0.0362
     68 H         -2.537593   2.497171   1.062829 H        1 UNL1     0.0741
     69 H         -1.195526   0.51832   2.207115 H        1 UNL1     0.0359
     70 H         0.909135   0.723866   2.933521 H        1 UNL1     0.0600
     71 H         1.80009   -0.405271   1.309958 H        1 UNL1     0.0348
     72 H         3.357804   1.467012   1.298606 H        1 UNL1     0.0602
     73 H         0.761136   5.409275   -0.447024 H        1 UNL1     0.0628
     74 H         1.539502   5.436186   2.528551 H        1 UNL1     0.1022
     75 H         10.952345   2.256531   -3.436584 H        1 UNL1     0.0279
     76 H         10.797159   3.447811   -4.665434 H        1 UNL1     0.0279
     77 H         11.914876   3.664654   -3.258669 H        1 UNL1     0.0279
     78 H         9.063836   4.807847   -5.02248 H        1 UNL1     0.1553
     79 H         7.785654   3.335728   -4.668446 H        1 UNL1     0.1484
     80 H         4.036504   2.731906   -4.805463 H        1 UNL1     0.0317
     81 H         4.770706   4.259842   -5.270527 H        1 UNL1     0.0317
     82 H         6.682812   3.070957   -6.376921 H        1 UNL1     0.0428
     83 H         5.126908   2.594582   -7.020298 H        1 UNL1     0.0428
     84 H         6.907274   -0.042194   -4.195259 H        1 UNL1     0.0428
     85 H         7.816616   1.369068   -4.608249 H        1 UNL1     0.0428
     86 H         6.524798   1.440474   -2.474951 H        1 UNL1     0.0317
     87 H         5.028746   1.213024   -3.25754 H        1 UNL1     0.0317
     88 H         7.263061   0.884149   -7.380687 H        1 UNL1     0.0429
     89 H         6.900179   -0.603666   -6.502644 H        1 UNL1     0.0429
     90 H         4.358708   0.211324   -7.30583 H        1 UNL1     0.0308
     91 H         6.299788   1.034495   -9.544001 H        1 UNL1     0.0233
     92 H         4.531711   0.884944   -9.708413 H        1 UNL1     0.0233
     93 H         5.220509   2.123984   -8.68131 H        1 UNL1     0.0233
     94 H         4.646185   -1.478292   -9.155507 H        1 UNL1     0.0233
     95 H         6.344352   -1.602447   -8.670592 H        1 UNL1     0.0233
     96 H         5.058354   -2.041264   -7.522708 H        1 UNL1     0.0233
     97 H         4.134675   10.522713   -0.097246 H        1 UNL1     0.0280
     98 H         5.744425   11.139318   -0.353548 H        1 UNL1     0.0280
     99 H         4.568823   11.140664   -1.701765 H        1 UNL1     0.0280
     100 H         6.68457   10.724102   -3.011594 H        1 UNL1     0.2922
     101 H         4.698078   0.897648   2.437823 H        1 UNL1     0.0236
     102 H         6.025661   2.122116   2.503135 H        1 UNL1     0.0236
     103 H         6.311039   0.509102   1.926729 H        1 UNL1     0.0236
     104 H         4.33191   -0.558153   1.273715 H        1 UNL1     0.2098
     105 H         0.708647   1.282334   -0.929638 H        1 UNL1     0.0234
     106 H         1.291028   -0.404376   -1.012931 H        1 UNL1     0.0234
     107 H         0.0   -0.0   0.0 H        1 UNL1     0.0234
     108 H         1.20349   3.258935   1.74886 H        1 UNL1     0.2098
     109 H         1.080094   3.060975   -0.850524 H        1 UNL1     0.0234
     110 H         -0.172122   2.327264   -1.902392 H        1 UNL1     0.0234
     111 H         0.065686   4.039612   -1.889851 H        1 UNL1     0.0234
     112 H         -3.589946   -1.512274   1.459757 H        1 UNL1     0.0342
     113 H         -3.229805   0.124438   2.115279 H        1 UNL1     0.0342
     114 H         -4.424474   -0.080469   0.831242 H        1 UNL1     0.0342
     115 H         -2.654647   1.949592   3.311783 H        1 UNL1     0.0234
     116 H         -1.148281   1.918272   4.234098 H        1 UNL1     0.0234
     117 H         -1.623946   3.299968   3.224987 H        1 UNL1     0.0234
     118 H         0.94045   7.682549   -0.770471 H        1 UNL1     0.0309
     119 H         2.210687   7.786846   -2.028915 H        1 UNL1     0.0309
     120 H         1.454743   6.265397   -1.609513 H        1 UNL1     0.0309
     121 H         -0.301231   6.274557   2.815027 H        1 UNL1     0.0524
     122 H         -2.042096   6.060088   2.590866 H        1 UNL1     0.0524
     123 H         -1.239684   5.333226   4.005627 H        1 UNL1     0.0524
@<TRIPOS>BOND
     1     1     2    1
     2     1    42    1
     3     2     3    2
     4     3     4    1
     5     4     5    2
     6     5     7    1
     7     6    75    1
     8     6    76    1
     9     6    77    1
    10     7     9   am
    11     9    10    1
    12    10    11    2
    13    10    43    1
    14    11    14    1
    15    11    15    1
    16    12    13   ar
    17    12    27   ar
    18    12    43    1
    19    13    14    1
    20    13    30   ar
    21    14    17    2
    22    15    16    1
    23    16    17    1
    24    16    18    1
    25    16    22    1
    26    18    19    1
    27    19    20    1
    28    20    21    1
    29    21    22    1
    30    23    24    1
    31    23    88    1
    32    23    89    1
    33    24    25    1
    34    24    26    1
    35    24    90    1
    36    25    91    1
    37    25    92    1
    38    25    93    1
    39    26    94    1
    40    26    95    1
    41    26    96    1
    42    27    28   ar
    43    28    29   ar
    44    29    30   ar
    45    29    31    1
    46    30    33    1
    47    31    32    1
    48    32    33    1
    49    32    35    1
    50    34    97    1
    51    34    98    1
    52    34    99    1
    53    35    61    1
    54    36    37    1
    55    36    60    1
    56    37    38    1
    57    38    39    1
    58    39    40    1
    59    40    41    1
    60    41    42    1
    61    45   100    1
    62    47   101    1
    63    47   102    1
    64    47   103    1
    65    48   104    1
    66    49   105    1
    67    49   106    1
    68    49   107    1
    69    50   108    1
    70    51    59    1
    71    52   109    1
    72    52   110    1
    73    52   111    1
    74    53    54    1
    75    54    55    2
    76    54    56    1
    77    56   112    1
    78    56   113    1
    79    56   114    1
    80    57   115    1
    81    57   116    1
    82    57   117    1
    83    58   118    1
    84    58   119    1
    85    58   120    1
    86    59   121    1
    87    59   122    1
    88    59   123    1
    89    60    61    2
    90     1    47    1
    91     1    62    1
    92     2    63    1
    93     3    64    1
    94     4    65    1
    95     5     6    1
    96     7     8    2
    97     9    78    1
    98    15    79    1
    99    18    80    1
   100    18    81    1
   101    19    82    1
   102    19    83    1
   103    20    23    1
   104    21    84    1
   105    21    85    1
   106    22    86    1
   107    22    87    1
   108    27    45    1
   109    28    34    1
   110    32    58    1
   111    33    46    2
   112    36    51    1
   113    36    66    1
   114    37    52    1
   115    37    67    1
   116    38    53    1
   117    38    68    1
   118    42    48    1
   119    42    72    1
   120    43    44    2
   121    60    73    1
   122    61    74    1
   123    39    69    1
   124    39    57    1
   125    40    70    1
   126    40    50    1
   127    41    71    1
   128    41    49    1
