@<TRIPOS>MOLECULE
*****
 123 128 0 0 0
SMALL
GASTEIGER

@<TRIPOS>ATOM
     1 C         3.2163   -1.886654   4.013441 C.3        1 UNL1     0.0009
     2 C         3.324121   -2.340788   5.807646 C.2        1 UNL1     -0.0787
     3 C         3.733474   -2.026809   7.160382 C.2        1 UNL1     -0.0649
     4 C         3.409879   -2.899576   8.574567 C.2        1 UNL1     -0.0542
     5 C         3.340024   -2.835484   9.988106 C.2        1 UNL1     0.0115
     6 C         3.670965   -1.954265   11.223927 C.3        1 UNL1     -0.0348
     7 C         2.531598   -3.975141   10.778433 C.2        1 UNL1     0.2441
     8 O         3.082397   -4.898889   11.361388 O.2        1 UNL1     -0.2702
     9 N         1.167605   -3.699261   10.977342 N.am        1 UNL1     -0.2772
     10 C         0.426506   -4.144787   9.907014 C.2        1 UNL1     0.1049
     11 C         0.369966   -3.338705   8.862382 C.2        1 UNL1     0.0801
     12 C         0.06232   -6.136647   8.438275 C.ar        1 UNL1     0.0753
     13 C         0.217801   -5.247783   7.327259 C.ar        1 UNL1     0.0305
     14 C         0.245588   -3.797779   7.505489 C.2        1 UNL1     0.0924
     15 N         0.74483   -2.053628   8.741621 N.pl3        1 UNL1     -0.3170
     16 C         0.312535   -1.589306   7.450195 C.3        1 UNL1     0.1275
     17 N         0.282431   -2.830994   6.592857 N.2        1 UNL1     -0.2557
     18 C         -1.137976   -1.138699   7.593979 C.3        1 UNL1     0.0016
     19 C         -1.215602   -0.093354   8.695259 C.3        1 UNL1     0.0026
     20 N         -0.352319   1.024686   8.34064 N.3        1 UNL1     -0.3018
     21 C         1.053572   0.679179   8.120495 C.3        1 UNL1     0.0026
     22 C         1.108342   -0.368594   7.007362 C.3        1 UNL1     0.0016
     23 C         -0.57897   2.195528   9.164291 C.3        1 UNL1     0.0012
     24 C         0.227409   2.100488   10.469081 C.3        1 UNL1     -0.0339
     25 C         1.619258   1.493661   10.227056 C.3        1 UNL1     -0.0615
     26 C         0.319839   3.467288   11.124896 C.3        1 UNL1     -0.0615
     27 C         -0.084511   -7.50887   8.249694 C.ar        1 UNL1     0.1347
     28 C         -0.131051   -8.101792   7.000564 C.ar        1 UNL1     0.0342
     29 C         0.073037   -7.213277   5.923506 C.ar        1 UNL1     0.1435
     30 C         0.257548   -5.841275   6.098966 C.ar        1 UNL1     0.0774
     31 O         -0.053348   -7.619343   4.641265 O.3        1 UNL1     -0.4436
     32 C         -0.249172   -6.408666   3.895082 C.3        1 UNL1     0.3143
     33 C         0.349001   -5.312851   4.753912 C.2        1 UNL1     0.2504
     34 C         -0.534913   -9.520998   6.712726 C.3        1 UNL1     -0.0327
     35 O         0.557649   -6.50071   2.71448 O.2        1 UNL1     -0.4528
     36 C         -1.253139   -4.484385   0.056743 C.3        1 UNL1     0.0854
     37 C         -1.68993   -2.969081   0.080999 C.3        1 UNL1     0.0236
     38 C         -1.154663   -2.091629   -1.149982 C.3        1 UNL1     0.1131
     39 C         0.382316   -2.117841   -1.523182 C.3        1 UNL1     0.0200
     40 C         1.543381   -2.040289   -0.328045 C.3        1 UNL1     0.0661
     41 C         1.597713   -0.906346   0.932443 C.3        1 UNL1     0.0091
     42 C         2.216039   -1.067294   2.652086 C.3        1 UNL1     0.0661
     43 C         -0.027174   -5.538943   9.793635 C.2        1 UNL1     0.2131
     44 O         -0.535429   -6.102858   10.745693 O.2        1 UNL1     -0.2851
     45 O         -0.184501   -8.309125   9.38593 O.3        1 UNL1     -0.5056
     46 O         0.816268   -4.252013   4.404426 O.2        1 UNL1     -0.2836
     47 C         4.601193   -2.050814   3.331455 C.3        1 UNL1     -0.0566
     48 O         2.996006   0.193283   2.610704 O.3        1 UNL1     -0.3909
     49 C         0.2646   -0.195952   1.007576 C.3        1 UNL1     -0.0577
     50 O         1.83748   -3.33016   0.169411 O.3        1 UNL1     -0.3910
     51 O         -0.314552   -4.839191   -0.933509 O.3        1 UNL1     -0.3753
     52 C         -1.753781   -2.405224   1.538029 C.3        1 UNL1     -0.0564
     53 O         -1.855392   -0.772643   -1.296884 O.3        1 UNL1     -0.4608
     54 C         -1.264073   0.403963   -1.676185 C.2        1 UNL1     0.3042
     55 O         -0.944061   1.346251   -0.952635 O.2        1 UNL1     -0.2512
     56 C         -0.944468   0.471085   -3.142493 C.3        1 UNL1     0.0332
     57 C         0.578434   -3.200907   -2.683648 C.3        1 UNL1     -0.0567
     58 C         -1.777848   -6.193082   3.804512 C.3        1 UNL1     0.0210
     59 C         -0.847597   -5.591279   -2.022587 C.3        1 UNL1     0.0372
     60 C         -0.733445   -5.009783   1.348654 C.2        1 UNL1     -0.0208
     61 C         0.333332   -5.767288   1.607339 C.2        1 UNL1     0.0882
     62 H         2.665267   -2.81709   3.830786 H        1 UNL1     0.0365
     63 H         2.901727   -3.347609   5.788556 H        1 UNL1     0.0576
     64 H         4.174761   -1.060669   7.415229 H        1 UNL1     0.0615
     65 H         3.051944   -3.865658   8.208436 H        1 UNL1     0.0622
     66 H         -2.18274   -5.036471   -0.140966 H        1 UNL1     0.0645
     67 H         -2.773844   -2.999175   -0.125849 H        1 UNL1     0.0362
     68 H         -1.66488   -2.606367   -1.978382 H        1 UNL1     0.0741
     69 H         0.608031   -1.250868   -2.129662 H        1 UNL1     0.0359
     70 H         2.426959   -1.770886   -0.937776 H        1 UNL1     0.0600
     71 H         2.23234   -0.128047   0.465048 H        1 UNL1     0.0348
     72 H         2.675487   -1.890771   2.086304 H        1 UNL1     0.0602
     73 H         -1.433012   -4.797751   2.118652 H        1 UNL1     0.0628
     74 H         1.125739   -5.982164   0.889595 H        1 UNL1     0.1022
     75 H         4.412827   -2.466252   11.883126 H        1 UNL1     0.0279
     76 H         4.154057   -1.000421   11.024246 H        1 UNL1     0.0279
     77 H         2.816129   -1.841007   11.906663 H        1 UNL1     0.0279
     78 H         1.028913   -2.693388   11.048486 H        1 UNL1     0.1553
     79 H         0.884032   -1.438361   9.522006 H        1 UNL1     0.1484
     80 H         -1.484046   -0.735989   6.634382 H        1 UNL1     0.0317
     81 H         -1.789425   -1.986602   7.831309 H        1 UNL1     0.0317
     82 H         -0.939117   -0.511954   9.674158 H        1 UNL1     0.0428
     83 H         -2.25856   0.212788   8.782238 H        1 UNL1     0.0428
     84 H         1.663668   1.520812   7.77808 H        1 UNL1     0.0428
     85 H         1.544587   0.353654   9.047995 H        1 UNL1     0.0428
     86 H         2.1508   -0.498049   6.782612 H        1 UNL1     0.0317
     87 H         0.698582   0.048736   6.079446 H        1 UNL1     0.0317
     88 H         -0.237754   3.077101   8.605993 H        1 UNL1     0.0429
     89 H         -1.647862   2.338302   9.368887 H        1 UNL1     0.0429
     90 H         -0.312595   1.463324   11.179454 H        1 UNL1     0.0308
     91 H         2.163389   1.359196   11.166706 H        1 UNL1     0.0233
     92 H         1.53747   0.529962   9.718918 H        1 UNL1     0.0233
     93 H         2.244558   2.125799   9.584999 H        1 UNL1     0.0233
     94 H         0.922466   3.408266   12.03769 H        1 UNL1     0.0233
     95 H         0.804046   4.175261   10.446456 H        1 UNL1     0.0233
     96 H         -0.669687   3.851234   11.38832 H        1 UNL1     0.0233
     97 H         -1.385941   -9.574057   6.040292 H        1 UNL1     0.0280
     98 H         0.268504   -10.089301   6.226096 H        1 UNL1     0.0280
     99 H         -0.806543   -10.025608   7.654364 H        1 UNL1     0.0280
     100 H         0.401183   -9.045623   9.398872 H        1 UNL1     0.2922
     101 H         5.365666   -1.55213   3.926897 H        1 UNL1     0.0236
     102 H         4.610001   -1.719043   2.293749 H        1 UNL1     0.0236
     103 H         4.920971   -3.105507   3.292003 H        1 UNL1     0.0236
     104 H         3.393786   0.264937   1.720981 H        1 UNL1     0.2098
     105 H         -0.53356   -0.784685   1.452712 H        1 UNL1     0.0234
     106 H         0.301342   0.794545   1.460888 H        1 UNL1     0.0234
     107 H         0.0   0.0   0.0 H        1 UNL1     0.0234
     108 H         2.335451   -3.213632   1.001405 H        1 UNL1     0.2098
     109 H         -2.481654   -2.943671   2.160915 H        1 UNL1     0.0234
     110 H         -0.779621   -2.395088   2.038682 H        1 UNL1     0.0234
     111 H         -2.071025   -1.353979   1.55164 H        1 UNL1     0.0234
     112 H         -1.789562   0.092288   -3.72531 H        1 UNL1     0.0342
     113 H         -0.673017   1.477741   -3.456821 H        1 UNL1     0.0342
     114 H         -0.082294   -0.181901   -3.335963 H        1 UNL1     0.0342
     115 H         1.380909   -2.915163   -3.377601 H        1 UNL1     0.0234
     116 H         0.801299   -4.205918   -2.319873 H        1 UNL1     0.0234
     117 H         -0.282548   -3.270485   -3.370533 H        1 UNL1     0.0234
     118 H         -2.157592   -6.342725   2.778642 H        1 UNL1     0.0309
     119 H         -2.343063   -6.830201   4.492127 H        1 UNL1     0.0309
     120 H         -2.071477   -5.163099   4.034777 H        1 UNL1     0.0309
     121 H         -0.026957   -6.152485   -2.468632 H        1 UNL1     0.0524
     122 H         -1.608502   -6.319342   -1.695501 H        1 UNL1     0.0524
     123 H         -1.289888   -4.925521   -2.758276 H        1 UNL1     0.0524
@<TRIPOS>BOND
     1     1     2    1
     2     1    42    1
     3     2     3    2
     4     3     4    1
     5     4     5    2
     6     5     7    1
     7     6    75    1
     8     6    76    1
     9     6    77    1
    10     7     9   am
    11     9    10    1
    12    10    11    2
    13    10    43    1
    14    11    14    1
    15    11    15    1
    16    12    13   ar
    17    12    27   ar
    18    12    43    1
    19    13    14    1
    20    13    30   ar
    21    14    17    2
    22    15    16    1
    23    16    17    1
    24    16    18    1
    25    16    22    1
    26    18    19    1
    27    19    20    1
    28    20    21    1
    29    21    22    1
    30    23    24    1
    31    23    88    1
    32    23    89    1
    33    24    25    1
    34    24    26    1
    35    24    90    1
    36    25    91    1
    37    25    92    1
    38    25    93    1
    39    26    94    1
    40    26    95    1
    41    26    96    1
    42    27    28   ar
    43    28    29   ar
    44    29    30   ar
    45    29    31    1
    46    30    33    1
    47    31    32    1
    48    32    33    1
    49    32    35    1
    50    34    97    1
    51    34    98    1
    52    34    99    1
    53    35    61    1
    54    36    37    1
    55    36    60    1
    56    37    38    1
    57    38    39    1
    58    39    40    1
    59    40    41    1
    60    41    42    1
    61    45   100    1
    62    47   101    1
    63    47   102    1
    64    47   103    1
    65    48   104    1
    66    49   105    1
    67    49   106    1
    68    49   107    1
    69    50   108    1
    70    51    59    1
    71    52   109    1
    72    52   110    1
    73    52   111    1
    74    53    54    1
    75    54    55    2
    76    54    56    1
    77    56   112    1
    78    56   113    1
    79    56   114    1
    80    57   115    1
    81    57   116    1
    82    57   117    1
    83    58   118    1
    84    58   119    1
    85    58   120    1
    86    59   121    1
    87    59   122    1
    88    59   123    1
    89    60    61    2
    90     1    47    1
    91     1    62    1
    92     2    63    1
    93     3    64    1
    94     4    65    1
    95     5     6    1
    96     7     8    2
    97     9    78    1
    98    15    79    1
    99    18    80    1
   100    18    81    1
   101    19    82    1
   102    19    83    1
   103    20    23    1
   104    21    84    1
   105    21    85    1
   106    22    86    1
   107    22    87    1
   108    27    45    1
   109    28    34    1
   110    32    58    1
   111    33    46    2
   112    36    51    1
   113    36    66    1
   114    37    52    1
   115    37    67    1
   116    38    53    1
   117    38    68    1
   118    42    48    1
   119    42    72    1
   120    43    44    2
   121    60    73    1
   122    61    74    1
   123    39    69    1
   124    39    57    1
   125    40    70    1
   126    40    50    1
   127    41    71    1
   128    41    49    1
