@<TRIPOS>MOLECULE
*****
 123 128 0 0 0
SMALL
GASTEIGER

@<TRIPOS>ATOM
     1 C         3.083625   -3.474391   2.903726 C.3        1 UNL1     0.0009
     2 C         3.272004   -4.386463   4.506746 C.2        1 UNL1     -0.0787
     3 C         3.887759   -4.521793   5.810041 C.2        1 UNL1     -0.0649
     4 C         3.518712   -5.642785   7.023935 C.2        1 UNL1     -0.0542
     5 C         3.618775   -5.931142   8.407378 C.2        1 UNL1     0.0115
     6 C         4.282115   -5.484668   9.73928 C.3        1 UNL1     -0.0348
     7 C         2.650858   -7.04412   9.040945 C.2        1 UNL1     0.2441
     8 O         3.023875   -8.179485   9.302345 O.2        1 UNL1     -0.2702
     9 N         1.422174   -6.55419   9.516821 N.am        1 UNL1     -0.2772
     10 C         0.485201   -6.547417   8.509171 C.2        1 UNL1     0.1049
     11 C         0.511247   -5.506177   7.69716 C.2        1 UNL1     0.0801
     12 C         -0.501234   -7.975954   6.708182 C.ar        1 UNL1     0.0753
     13 C         -0.257926   -6.883094   5.816518 C.ar        1 UNL1     0.0305
     14 C         0.13528   -5.565402   6.310611 C.2        1 UNL1     0.0924
     15 N         1.167687   -4.338774   7.810227 N.pl3        1 UNL1     -0.3170
     16 C         0.722762   -3.479548   6.74532 C.3        1 UNL1     0.1275
     17 N         0.30412   -4.425541   5.646429 N.2        1 UNL1     -0.2557
     18 C         -0.553497   -2.792667   7.221827 C.3        1 UNL1     0.0016
     19 C         -0.259571   -2.072608   8.528239 C.3        1 UNL1     0.0026
     20 N         0.802992   -1.103292   8.299297 N.3        1 UNL1     -0.3018
     21 C         2.053146   -1.662129   7.780467 C.3        1 UNL1     0.0026
     22 C         1.735308   -2.376735   6.465852 C.3        1 UNL1     0.0016
     23 C         0.953295   -0.162733   9.391726 C.3        1 UNL1     0.0012
     24 C         -0.210401   0.840989   9.402249 C.3        1 UNL1     -0.0339
     25 C         -1.543335   0.160338   9.050033 C.3        1 UNL1     -0.0615
     26 C         -0.279787   1.543814   10.746869 C.3        1 UNL1     -0.0615
     27 C         -0.991797   -9.193055   6.241137 C.ar        1 UNL1     0.1347
     28 C         -1.313111   -9.422371   4.915157 C.ar        1 UNL1     0.0342
     29 C         -1.019328   -8.348563   4.048098 C.ar        1 UNL1     0.1435
     30 C         -0.493873   -7.136048   4.496345 C.ar        1 UNL1     0.0774
     31 O         -1.376505   -8.376502   2.745543 O.3        1 UNL1     -0.4436
     32 C         -1.355858   -7.00126   2.334258 C.3        1 UNL1     0.3143
     33 C         -0.423841   -6.310232   3.308957 C.2        1 UNL1     0.2504
     34 C         -2.073622   -10.605465   4.384111 C.3        1 UNL1     -0.0327
     35 O         -0.726428   -6.95073   1.047978 O.2        1 UNL1     -0.4528
     36 C         -2.276894   -3.991353   -0.753752 C.3        1 UNL1     0.0854
     37 C         -2.332905   -2.47688   -0.316993 C.3        1 UNL1     0.0236
     38 C         -1.738774   -1.44208   -1.388413 C.3        1 UNL1     0.1131
     39 C         -0.302144   -1.687043   -2.003521 C.3        1 UNL1     0.0200
     40 C         0.965382   -2.159734   -1.027621 C.3        1 UNL1     0.0661
     41 C         1.424988   -1.424065   0.430173 C.3        1 UNL1     0.0091
     42 C         2.168146   -2.145125   1.944501 C.3        1 UNL1     0.0661
     43 C         -0.298607   -7.741444   8.15946 C.2        1 UNL1     0.2131
     44 O         -0.821611   -8.414058   9.0294 O.2        1 UNL1     -0.2851
     45 O         -1.15763   -10.220139   7.167979 O.3        1 UNL1     -0.5056
     46 O         0.24345   -5.314801   3.136639 O.2        1 UNL1     -0.2836
     47 C         4.30724   -3.738985   1.985719 C.3        1 UNL1     -0.0566
     48 O         3.218156   -1.104573   2.062178 O.3        1 UNL1     -0.3909
     49 C         0.316828   -0.498377   0.880261 C.3        1 UNL1     -0.0577
     50 O         0.993832   -3.566053   -0.889134 O.3        1 UNL1     -0.3910
     51 O         -1.562756   -4.26496   -1.938056 O.3        1 UNL1     -0.3753
     52 C         -2.102697   -2.305732   1.220102 C.3        1 UNL1     -0.0564
     53 O         -2.114893   -0.014718   -1.117307 O.3        1 UNL1     -0.4608
     54 C         -1.303388   1.072179   -1.312355 C.2        1 UNL1     0.3042
     55 O         -0.691097   1.710208   -0.456868 O.2        1 UNL1     -0.2512
     56 C         -1.136718   1.446632   -2.757595 C.3        1 UNL1     0.0332
     57 C         -0.497137   -2.451883   -3.394625 C.3        1 UNL1     -0.0567
     58 C         -2.789038   -6.460006   2.545369 C.3        1 UNL1     0.0210
     59 C         -2.372828   -4.616345   -3.058849 C.3        1 UNL1     0.0372
     60 C         -1.762208   -4.926352   0.283569 C.2        1 UNL1     -0.0208
     61 C         -0.8864   -5.927531   0.186897 C.2        1 UNL1     0.0882
     62 H         2.309464   -4.192711   2.608087 H        1 UNL1     0.0365
     63 H         2.621281   -5.245402   4.329957 H        1 UNL1     0.0576
     64 H         4.572342   -3.765738   6.200982 H        1 UNL1     0.0615
     65 H         2.902596   -6.387331   6.512529 H        1 UNL1     0.0622
     66 H         -3.327367   -4.270675   -0.916641 H        1 UNL1     0.0645
     67 H         -3.408265   -2.229211   -0.345603 H        1 UNL1     0.0362
     68 H         -2.443501   -1.610318   -2.217013 H        1 UNL1     0.0741
     69 H         0.05799   -0.758951   -2.427028 H        1 UNL1     0.0359
     70 H         1.816862   -1.930385   -1.696531 H        1 UNL1     0.0600
     71 H         2.173424   -0.699551   0.053504 H        1 UNL1     0.0348
     72 H         2.353404   -2.87182   1.140195 H        1 UNL1     0.0602
     73 H         -2.303601   -4.780124   1.185101 H        1 UNL1     0.0628
     74 H         -0.250481   -6.108968   -0.680239 H        1 UNL1     0.1022
     75 H         4.946298   -6.290106   10.135721 H        1 UNL1     0.0279
     76 H         4.955177   -4.632019   9.684092 H        1 UNL1     0.0279
     77 H         3.557856   -5.377351   10.560032 H        1 UNL1     0.0279
     78 H         1.536866   -5.594123   9.834931 H        1 UNL1     0.1553
     79 H         1.533318   -3.986961   8.675948 H        1 UNL1     0.1484
     80 H         -0.894265   -2.094626   6.44763 H        1 UNL1     0.0317
     81 H         -1.359592   -3.520327   7.364567 H        1 UNL1     0.0317
     82 H         0.012325   -2.776301   9.328739 H        1 UNL1     0.0428
     83 H         -1.183279   -1.591367   8.851072 H        1 UNL1     0.0428
     84 H         2.806528   -0.904881   7.542134 H        1 UNL1     0.0428
     85 H         2.548802   -2.308848   8.517621 H        1 UNL1     0.0428
     86 H         2.686015   -2.655626   6.050685 H        1 UNL1     0.0317
     87 H         1.339994   -1.65993   5.735774 H        1 UNL1     0.0317
     88 H         0.936453   -0.727234   10.333188 H        1 UNL1     0.0429
     89 H         1.920862   0.353262   9.343389 H        1 UNL1     0.0429
     90 H         -0.013638   1.626807   8.663339 H        1 UNL1     0.0308
     91 H         -2.357241   0.88876   8.986311 H        1 UNL1     0.0233
     92 H         -1.465108   -0.374022   8.100324 H        1 UNL1     0.0233
     93 H         -1.84159   -0.58542   9.796842 H        1 UNL1     0.0233
     94 H         -1.128964   2.235391   10.768195 H        1 UNL1     0.0233
     95 H         -0.422493   0.810027   11.545089 H        1 UNL1     0.0233
     96 H         0.633158   2.111264   10.948117 H        1 UNL1     0.0233
     97 H         -2.978636   -10.307598   3.863097 H        1 UNL1     0.0280
     98 H         -1.485957   -11.183668   3.659136 H        1 UNL1     0.0280
     99 H         -2.357355   -11.266818   5.219098 H        1 UNL1     0.0280
     100 H         -0.412262   -10.371523   7.722174 H        1 UNL1     0.2922
     101 H         5.228391   -3.578334   2.545476 H        1 UNL1     0.0236
     102 H         4.283511   -3.160847   1.062584 H        1 UNL1     0.0236
     103 H         4.359003   -4.790541   1.657476 H        1 UNL1     0.0236
     104 H         3.035003   -0.422965   1.386281 H        1 UNL1     0.2098
     105 H         -0.546408   -1.004534   1.305043 H        1 UNL1     0.0234
     106 H         0.638246   0.312881   1.533313 H        1 UNL1     0.0234
     107 H         0.0   0.0   0.0 H        1 UNL1     0.0234
     108 H         1.591775   -3.77224   -0.145011 H        1 UNL1     0.2098
     109 H         -2.866942   -2.824539   1.815485 H        1 UNL1     0.0234
     110 H         -1.1064   -2.625175   1.544283 H        1 UNL1     0.0234
     111 H         -2.155621   -1.251313   1.522335 H        1 UNL1     0.0234
     112 H         -2.105596   1.412526   -3.265 H        1 UNL1     0.0342
     113 H         -0.667564   2.42214   -2.876434 H        1 UNL1     0.0342
     114 H         -0.481968   0.702423   -3.231535 H        1 UNL1     0.0342
     115 H         0.26192   -2.157507   -4.132435 H        1 UNL1     0.0234
     116 H         -0.468833   -3.540095   -3.310708 H        1 UNL1     0.0234
     117 H         -1.425972   -2.175055   -3.922424 H        1 UNL1     0.0234
     118 H         -3.301139   -6.258117   1.58829 H        1 UNL1     0.0309
     119 H         -3.413457   -7.122808   3.15282 H        1 UNL1     0.0309
     120 H         -2.801017   -5.486908   3.048401 H        1 UNL1     0.0309
     121 H         -1.75463   -5.196323   -3.743548 H        1 UNL1     0.0524
     122 H         -3.232022   -5.245777   -2.773124 H        1 UNL1     0.0524
     123 H         -2.740283   -3.7211   -3.552415 H        1 UNL1     0.0524
@<TRIPOS>BOND
     1     1     2    1
     2     1    42    1
     3     2     3    2
     4     3     4    1
     5     4     5    2
     6     5     7    1
     7     6    75    1
     8     6    76    1
     9     6    77    1
    10     7     9   am
    11     9    10    1
    12    10    11    2
    13    10    43    1
    14    11    14    1
    15    11    15    1
    16    12    13   ar
    17    12    27   ar
    18    12    43    1
    19    13    14    1
    20    13    30   ar
    21    14    17    2
    22    15    16    1
    23    16    17    1
    24    16    18    1
    25    16    22    1
    26    18    19    1
    27    19    20    1
    28    20    21    1
    29    21    22    1
    30    23    24    1
    31    23    88    1
    32    23    89    1
    33    24    25    1
    34    24    26    1
    35    24    90    1
    36    25    91    1
    37    25    92    1
    38    25    93    1
    39    26    94    1
    40    26    95    1
    41    26    96    1
    42    27    28   ar
    43    28    29   ar
    44    29    30   ar
    45    29    31    1
    46    30    33    1
    47    31    32    1
    48    32    33    1
    49    32    35    1
    50    34    97    1
    51    34    98    1
    52    34    99    1
    53    35    61    1
    54    36    37    1
    55    36    60    1
    56    37    38    1
    57    38    39    1
    58    39    40    1
    59    40    41    1
    60    41    42    1
    61    45   100    1
    62    47   101    1
    63    47   102    1
    64    47   103    1
    65    48   104    1
    66    49   105    1
    67    49   106    1
    68    49   107    1
    69    50   108    1
    70    51    59    1
    71    52   109    1
    72    52   110    1
    73    52   111    1
    74    53    54    1
    75    54    55    2
    76    54    56    1
    77    56   112    1
    78    56   113    1
    79    56   114    1
    80    57   115    1
    81    57   116    1
    82    57   117    1
    83    58   118    1
    84    58   119    1
    85    58   120    1
    86    59   121    1
    87    59   122    1
    88    59   123    1
    89    60    61    2
    90     1    47    1
    91     1    62    1
    92     2    63    1
    93     3    64    1
    94     4    65    1
    95     5     6    1
    96     7     8    2
    97     9    78    1
    98    15    79    1
    99    18    80    1
   100    18    81    1
   101    19    82    1
   102    19    83    1
   103    20    23    1
   104    21    84    1
   105    21    85    1
   106    22    86    1
   107    22    87    1
   108    27    45    1
   109    28    34    1
   110    32    58    1
   111    33    46    2
   112    36    51    1
   113    36    66    1
   114    37    52    1
   115    37    67    1
   116    38    53    1
   117    38    68    1
   118    42    48    1
   119    42    72    1
   120    43    44    2
   121    60    73    1
   122    61    74    1
   123    39    69    1
   124    39    57    1
   125    40    70    1
   126    40    50    1
   127    41    71    1
   128    41    49    1
