@<TRIPOS>MOLECULE
*****
 123 128 0 0 0
SMALL
GASTEIGER

@<TRIPOS>ATOM
     1 C         0.218946   1.385907   3.953812 C.3        1 UNL1     0.0009
     2 C         -1.016128   1.118318   5.310288 C.2        1 UNL1     -0.0787
     3 C         -2.091738   1.610955   6.144804 C.2        1 UNL1     -0.0649
     4 C         -3.011781   0.747708   7.273822 C.2        1 UNL1     -0.0542
     5 C         -4.22231   0.722862   8.009404 C.2        1 UNL1     0.0115
     6 C         -5.4703   1.559575   8.404062 C.3        1 UNL1     -0.0348
     7 C         -4.712417   -0.66407   8.652213 C.2        1 UNL1     0.2441
     8 O         -4.585375   -0.928741   9.839788 O.2        1 UNL1     -0.2702
     9 N         -5.52999   -1.444337   7.816204 N.am        1 UNL1     -0.2772
     10 C         -4.761648   -2.269539   7.027526 C.2        1 UNL1     0.1049
     11 C         -4.266389   -1.729012   5.928995 C.2        1 UNL1     0.0801
     12 C         -2.872306   -3.906351   7.120095 C.ar        1 UNL1     0.0753
     13 C         -2.273456   -3.155809   6.058646 C.ar        1 UNL1     0.0305
     14 C         -3.014018   -2.120563   5.34109 C.2        1 UNL1     0.0924
     15 N         -4.556193   -0.558194   5.335928 N.pl3        1 UNL1     -0.3170
     16 C         -3.864963   -0.52162   4.074533 C.3        1 UNL1     0.1275
     17 N         -2.656914   -1.402603   4.279988 N.2        1 UNL1     -0.2557
     18 C         -4.744675   -1.240031   3.055861 C.3        1 UNL1     0.0016
     19 C         -6.112834   -0.577065   3.04145 C.3        1 UNL1     0.0026
     20 N         -5.948352   0.82755   2.693553 N.3        1 UNL1     -0.3018
     21 C         -5.067747   1.589066   3.581808 C.3        1 UNL1     0.0026
     22 C         -3.697922   0.90829   3.577541 C.3        1 UNL1     0.0016
     23 C         -7.20083   1.476472   2.36062 C.3        1 UNL1     0.0012
     24 C         -7.734908   0.958699   1.015842 C.3        1 UNL1     -0.0339
     25 C         -9.01951   0.134288   1.200777 C.3        1 UNL1     -0.0615
     26 C         -7.947999   2.118586   0.058745 C.3        1 UNL1     -0.0615
     27 C         -2.202871   -4.971598   7.717777 C.ar        1 UNL1     0.1347
     28 C         -0.951924   -5.403234   7.314204 C.ar        1 UNL1     0.0342
     29 C         -0.361473   -4.618811   6.300689 C.ar        1 UNL1     0.1435
     30 C         -1.005177   -3.526707   5.717446 C.ar        1 UNL1     0.0774
     31 O         0.806902   -4.975638   5.72399 O.3        1 UNL1     -0.4436
     32 C         0.833927   -4.254471   4.482998 C.3        1 UNL1     0.3143
     33 C         -0.089657   -3.071472   4.692092 C.2        1 UNL1     0.2504
     34 C         -0.283369   -6.683052   7.732771 C.3        1 UNL1     -0.0327
     35 O         2.157179   -3.727863   4.325075 O.2        1 UNL1     -0.4528
     36 C         2.772137   -3.563692   0.583022 C.3        1 UNL1     0.0854
     37 C         1.946429   -2.811177   -0.530285 C.3        1 UNL1     0.0236
     38 C         2.798417   -1.796543   -1.433821 C.3        1 UNL1     0.1131
     39 C         3.722672   -0.715353   -0.741687 C.3        1 UNL1     0.0200
     40 C         3.172132   0.148736   0.574631 C.3        1 UNL1     0.0661
     41 C         1.68895   0.96559   0.67726 C.3        1 UNL1     0.0091
     42 C         0.594342   1.268361   2.117942 C.3        1 UNL1     0.0661
     43 C         -4.265953   -3.569722   7.503093 C.2        1 UNL1     0.2131
     44 O         -5.010117   -4.341033   8.081053 O.2        1 UNL1     -0.2851
     45 O         -2.837413   -5.620783   8.774827 O.3        1 UNL1     -0.5056
     46 O         -0.062151   -1.989044   4.150385 O.2        1 UNL1     -0.2836
     47 C         1.393216   2.266361   4.459653 C.3        1 UNL1     -0.0566
     48 O         0.410119   2.709271   1.819685 O.3        1 UNL1     -0.3909
     49 C         0.803298   0.514127   -0.462607 C.3        1 UNL1     -0.0577
     50 O         3.420503   -0.554524   1.775239 O.3        1 UNL1     -0.3910
     51 O         4.101612   -3.130456   0.762563 O.3        1 UNL1     -0.3753
     52 C         0.493913   -2.4815   -0.054408 C.3        1 UNL1     -0.0564
     53 O         2.090295   -1.367338   -2.685489 O.3        1 UNL1     -0.4608
     54 C         2.39056   -0.254885   -3.427257 C.2        1 UNL1     0.3042
     55 O         1.993537   0.895041   -3.243185 O.2        1 UNL1     -0.2512
     56 C         3.360685   -0.519989   -4.543183 C.3        1 UNL1     0.0332
     57 C         5.201875   -1.319597   -0.670823 C.3        1 UNL1     -0.0567
     58 C         0.213153   -5.1902   3.419711 C.3        1 UNL1     0.0210
     59 C         5.094166   -4.127793   0.525879 C.3        1 UNL1     0.0372
     60 C         2.140603   -3.580927   1.930623 C.2        1 UNL1     -0.0208
     61 C         2.667543   -3.356911   3.135154 C.2        1 UNL1     0.0882
     62 H         0.539052   0.34296   4.065633 H        1 UNL1     0.0365
     63 H         -0.746995   0.111003   5.634871 H        1 UNL1     0.0576
     64 H         -2.529224   2.599807   5.99025 H        1 UNL1     0.0615
     65 H         -2.450326   -0.180175   7.412689 H        1 UNL1     0.0622
     66 H         2.796717   -4.610329   0.248366 H        1 UNL1     0.0645
     67 H         1.699357   -3.601077   -1.260745 H        1 UNL1     0.0362
     68 H         3.489148   -2.509397   -1.909482 H        1 UNL1     0.0741
     69 H         3.9458   0.062649   -1.459555 H        1 UNL1     0.0359
     70 H         3.907838   0.97563   0.581164 H        1 UNL1     0.0600
     71 H         1.997144   1.970491   0.327763 H        1 UNL1     0.0348
     72 H         1.582889   1.025388   2.53394 H        1 UNL1     0.0602
     73 H         1.145482   -3.941092   1.845395 H        1 UNL1     0.0628
     74 H         3.657844   -2.933387   3.305941 H        1 UNL1     0.1022
     75 H         -5.464595   2.544307   7.877466 H        1 UNL1     0.0279
     76 H         -6.437861   1.149486   8.123488 H        1 UNL1     0.0279
     77 H         -5.454023   1.876741   9.457078 H        1 UNL1     0.0279
     78 H         -6.063281   -0.837905   7.196592 H        1 UNL1     0.1553
     79 H         -5.396435   -0.03823   5.510751 H        1 UNL1     0.1484
     80 H         -4.264991   -1.190043   2.070888 H        1 UNL1     0.0317
     81 H         -4.842278   -2.302503   3.303405 H        1 UNL1     0.0317
     82 H         -6.629196   -0.688025   4.006318 H        1 UNL1     0.0428
     83 H         -6.724493   -1.105926   2.309857 H        1 UNL1     0.0428
     84 H         -4.897937   2.619188   3.253443 H        1 UNL1     0.0428
     85 H         -5.496082   1.69692   4.587896 H        1 UNL1     0.0428
     86 H         -3.047596   1.562801   4.127704 H        1 UNL1     0.0317
     87 H         -3.275454   0.922746   2.56541 H        1 UNL1     0.0317
     88 H         -7.93058   1.232579   3.143739 H        1 UNL1     0.0429
     89 H         -7.0935   2.568781   2.349954 H        1 UNL1     0.0429
     90 H         -6.974889   0.32096   0.549072 H        1 UNL1     0.0308
     91 H         -9.722424   0.638137   1.870963 H        1 UNL1     0.0233
     92 H         -9.506029   -0.043831   0.238913 H        1 UNL1     0.0233
     93 H         -8.822545   -0.854849   1.631645 H        1 UNL1     0.0233
     94 H         -8.664272   1.838095   -0.721072 H        1 UNL1     0.0233
     95 H         -8.356181   2.977912   0.598104 H        1 UNL1     0.0233
     96 H         -7.012075   2.415971   -0.422479 H        1 UNL1     0.0233
     97 H         -0.046965   -7.316176   6.882772 H        1 UNL1     0.0280
     98 H         0.669403   -6.503067   8.247637 H        1 UNL1     0.0280
     99 H         -0.950611   -7.244621   8.406954 H        1 UNL1     0.0280
     100 H         -3.404408   -6.326325   8.517243 H        1 UNL1     0.2922
     101 H         2.259407   2.131326   3.812247 H        1 UNL1     0.0236
     102 H         1.635765   2.096304   5.508096 H        1 UNL1     0.0236
     103 H         1.161225   3.342607   4.395874 H        1 UNL1     0.0236
     104 H         1.12576   3.197843   2.271487 H        1 UNL1     0.2098
     105 H         0.383521   1.32448   -1.053306 H        1 UNL1     0.0234
     106 H         1.247996   -0.237576   -1.114614 H        1 UNL1     0.0234
     107 H         0.0   -0.0   0.0 H        1 UNL1     0.0234
     108 H         2.780514   -1.290984   1.817768 H        1 UNL1     0.2098
     109 H         -0.078551   -3.38661   0.192112 H        1 UNL1     0.0234
     110 H         0.465604   -1.787932   0.792885 H        1 UNL1     0.0234
     111 H         -0.081918   -1.969519   -0.836866 H        1 UNL1     0.0234
     112 H         3.026014   -0.015858   -5.454881 H        1 UNL1     0.0342
     113 H         4.375553   -0.223266   -4.282718 H        1 UNL1     0.0342
     114 H         3.370078   -1.600867   -4.740108 H        1 UNL1     0.0342
     115 H         5.546245   -1.672748   -1.652598 H        1 UNL1     0.0234
     116 H         5.949707   -0.619667   -0.292811 H        1 UNL1     0.0234
     117 H         5.270569   -2.246007   -0.075015 H        1 UNL1     0.0234
     118 H         0.964188   -5.549794   2.694698 H        1 UNL1     0.0309
     119 H         -0.305367   -6.050512   3.854686 H        1 UNL1     0.0309
     120 H         -0.522776   -4.679802   2.788832 H        1 UNL1     0.0309
     121 H         5.975334   -3.860825   1.108654 H        1 UNL1     0.0524
     122 H         4.768722   -5.128476   0.855665 H        1 UNL1     0.0524
     123 H         5.341888   -4.16814   -0.53105 H        1 UNL1     0.0524
@<TRIPOS>BOND
     1     1     2    1
     2     1    42    1
     3     2     3    2
     4     3     4    1
     5     4     5    2
     6     5     7    1
     7     6    75    1
     8     6    76    1
     9     6    77    1
    10     7     9   am
    11     9    10    1
    12    10    11    2
    13    10    43    1
    14    11    14    1
    15    11    15    1
    16    12    13   ar
    17    12    27   ar
    18    12    43    1
    19    13    14    1
    20    13    30   ar
    21    14    17    2
    22    15    16    1
    23    16    17    1
    24    16    18    1
    25    16    22    1
    26    18    19    1
    27    19    20    1
    28    20    21    1
    29    21    22    1
    30    23    24    1
    31    23    88    1
    32    23    89    1
    33    24    25    1
    34    24    26    1
    35    24    90    1
    36    25    91    1
    37    25    92    1
    38    25    93    1
    39    26    94    1
    40    26    95    1
    41    26    96    1
    42    27    28   ar
    43    28    29   ar
    44    29    30   ar
    45    29    31    1
    46    30    33    1
    47    31    32    1
    48    32    33    1
    49    32    35    1
    50    34    97    1
    51    34    98    1
    52    34    99    1
    53    35    61    1
    54    36    37    1
    55    36    60    1
    56    37    38    1
    57    38    39    1
    58    39    40    1
    59    40    41    1
    60    41    42    1
    61    45   100    1
    62    47   101    1
    63    47   102    1
    64    47   103    1
    65    48   104    1
    66    49   105    1
    67    49   106    1
    68    49   107    1
    69    50   108    1
    70    51    59    1
    71    52   109    1
    72    52   110    1
    73    52   111    1
    74    53    54    1
    75    54    55    2
    76    54    56    1
    77    56   112    1
    78    56   113    1
    79    56   114    1
    80    57   115    1
    81    57   116    1
    82    57   117    1
    83    58   118    1
    84    58   119    1
    85    58   120    1
    86    59   121    1
    87    59   122    1
    88    59   123    1
    89    60    61    2
    90     1    47    1
    91     1    62    1
    92     2    63    1
    93     3    64    1
    94     4    65    1
    95     5     6    1
    96     7     8    2
    97     9    78    1
    98    15    79    1
    99    18    80    1
   100    18    81    1
   101    19    82    1
   102    19    83    1
   103    20    23    1
   104    21    84    1
   105    21    85    1
   106    22    86    1
   107    22    87    1
   108    27    45    1
   109    28    34    1
   110    32    58    1
   111    33    46    2
   112    36    51    1
   113    36    66    1
   114    37    52    1
   115    37    67    1
   116    38    53    1
   117    38    68    1
   118    42    48    1
   119    42    72    1
   120    43    44    2
   121    60    73    1
   122    61    74    1
   123    39    69    1
   124    39    57    1
   125    40    70    1
   126    40    50    1
   127    41    71    1
   128    41    49    1
