@<TRIPOS>MOLECULE
*****
 123 128 0 0 0
SMALL
GASTEIGER

@<TRIPOS>ATOM
     1 C         3.220945   2.597527   -3.242756 C.3        1 UNL1     0.0009
     2 C         3.94539   2.459251   -4.943666 C.2        1 UNL1     -0.0787
     3 C         5.092639   2.289398   -5.810277 C.2        1 UNL1     -0.0649
     4 C         5.107447   2.107656   -7.493461 C.2        1 UNL1     -0.0542
     5 C         5.859614   1.656308   -8.605939 C.2        1 UNL1     0.0115
     6 C         7.261413   1.162464   -9.058047 C.3        1 UNL1     -0.0348
     7 C         5.101835   1.37212   -9.9923 C.2        1 UNL1     0.2441
     8 O         5.132835   2.146822   -10.938557 O.2        1 UNL1     -0.2702
     9 N         4.618496   0.060497   -10.14123 N.am        1 UNL1     -0.2772
     10 C         3.351688   -0.047097   -9.614976 C.2        1 UNL1     0.1049
     11 C         3.277708   -0.237908   -8.310239 C.2        1 UNL1     0.0801
     12 C         1.101601   1.045789   -9.621601 C.ar        1 UNL1     0.0753
     13 C         1.163799   1.00379   -8.192274 C.ar        1 UNL1     0.0305
     14 C         2.195708   0.241052   -7.493385 C.2        1 UNL1     0.0924
     15 N         4.240506   -0.555069   -7.427653 N.pl3        1 UNL1     -0.3170
     16 C         3.607685   -0.816925   -6.162259 C.3        1 UNL1     0.1275
     17 N         2.346298   0.011168   -6.192077 N.2        1 UNL1     -0.2557
     18 C         3.157661   -2.274671   -6.174836 C.3        1 UNL1     0.0016
     19 C         4.363404   -3.153367   -6.46752 C.3        1 UNL1     0.0026
     20 N         5.369538   -2.924464   -5.439742 N.3        1 UNL1     -0.3018
     21 C         5.82082   -1.537477   -5.309438 C.3        1 UNL1     0.0026
     22 C         4.594431   -0.673279   -5.011065 C.3        1 UNL1     0.0016
     23 C         6.42413   -3.918616   -5.451607 C.3        1 UNL1     0.0012
     24 C         5.890833   -5.275381   -4.965253 C.3        1 UNL1     -0.0339
     25 C         6.963713   -6.055336   -4.187657 C.3        1 UNL1     -0.0615
     26 C         4.634705   -5.074103   -4.135548 C.3        1 UNL1     -0.0615
     27 C         0.046931   1.673728   -10.279995 C.ar        1 UNL1     0.1347
     28 C         -1.019313   2.257367   -9.619285 C.ar        1 UNL1     0.0342
     29 C         -0.912066   2.24678   -8.21232 C.ar        1 UNL1     0.1435
     30 C         0.15661   1.653245   -7.539364 C.ar        1 UNL1     0.0774
     31 O         -1.921857   2.677959   -7.425292 O.3        1 UNL1     -0.4436
     32 C         -1.658231   2.090018   -6.142444 C.3        1 UNL1     0.3143
     33 C         -0.170455   1.802438   -6.136675 C.2        1 UNL1     0.2504
     34 C         -2.30058   2.723602   -10.252594 C.3        1 UNL1     -0.0327
     35 O         -1.891515   3.101228   -5.154372 O.2        1 UNL1     -0.4528
     36 C         -3.03574   1.264629   -2.035759 C.3        1 UNL1     0.0854
     37 C         -2.30441   0.126448   -1.225065 C.3        1 UNL1     0.0236
     38 C         -2.100349   0.432782   0.335788 C.3        1 UNL1     0.1131
     39 C         -1.453921   1.803576   0.788916 C.3        1 UNL1     0.0200
     40 C         -0.119415   2.411902   -0.005734 C.3        1 UNL1     0.0661
     41 C         1.301128   1.555651   -0.361406 C.3        1 UNL1     0.0091
     42 C         2.45841   1.705988   -1.776856 C.3        1 UNL1     0.0661
     43 C         2.151062   0.320858   -10.380131 C.2        1 UNL1     0.2131
     44 O         2.013335   -0.052018   -11.531101 O.2        1 UNL1     -0.2851
     45 O         0.085542   1.709625   -11.672353 O.3        1 UNL1     -0.5056
     46 O         0.580133   1.734048   -5.189155 O.2        1 UNL1     -0.2836
     47 C         3.530502   3.992763   -2.636562 C.3        1 UNL1     -0.0566
     48 O         3.674786   1.713678   -0.928631 O.3        1 UNL1     -0.3909
     49 C         1.04557   0.079268   -0.155306 C.3        1 UNL1     -0.0577
     50 O         -0.510383   3.184525   -1.122838 O.3        1 UNL1     -0.3910
     51 O         -3.261141   2.469481   -1.339372 O.3        1 UNL1     -0.3753
     52 C         -1.208108   -0.586137   -2.082557 C.3        1 UNL1     -0.0564
     53 O         -1.732592   -0.778185   1.14241 O.3        1 UNL1     -0.4608
     54 C         -0.854733   -0.796176   2.194536 C.2        1 UNL1     0.3042
     55 O         0.307751   -1.19923   2.190487 O.2        1 UNL1     -0.2512
     56 C         -1.411565   -0.193232   3.452753 C.3        1 UNL1     0.0332
     57 C         -2.648672   2.813945   1.120427 C.3        1 UNL1     -0.0567
     58 C         -2.425887   0.74793   -6.110295 C.3        1 UNL1     0.0210
     59 C         -4.621193   2.708965   -0.980524 C.3        1 UNL1     0.0372
     60 C         -2.392509   1.629295   -3.327438 C.2        1 UNL1     -0.0208
     61 C         -2.138888   2.825711   -3.859426 C.2        1 UNL1     0.0882
     62 H         2.223748   2.666593   -3.693911 H        1 UNL1     0.0365
     63 H         3.058574   2.631123   -5.557251 H        1 UNL1     0.0576
     64 H         6.089368   2.093545   -5.408677 H        1 UNL1     0.0615
     65 H         4.098372   2.400363   -7.796073 H        1 UNL1     0.0622
     66 H         -4.012563   0.833607   -2.296687 H        1 UNL1     0.0645
     67 H         -3.04075   -0.69534   -1.193009 H        1 UNL1     0.0362
     68 H         -3.153316   0.488257   0.651551 H        1 UNL1     0.0741
     69 H         -1.098379   1.701467   1.805564 H        1 UNL1     0.0359
     70 H         0.223191   3.155769   0.738808 H        1 UNL1     0.0600
     71 H         1.903292   1.799011   0.535885 H        1 UNL1     0.0348
     72 H         1.891996   2.648109   -1.746865 H        1 UNL1     0.0602
     73 H         -2.240878   0.749862   -3.902637 H        1 UNL1     0.0628
     74 H         -2.212557   3.769472   -3.318016 H        1 UNL1     0.1022
     75 H         8.060273   1.835589   -8.663384 H        1 UNL1     0.0279
     76 H         7.574016   0.187529   -8.690828 H        1 UNL1     0.0279
     77 H         7.415674   1.255866   -10.143027 H        1 UNL1     0.0279
     78 H         5.217942   -0.584909   -9.631139 H        1 UNL1     0.1553
     79 H         5.12398   -0.954222   -7.686659 H        1 UNL1     0.1484
     80 H         2.71019   -2.519094   -5.203861 H        1 UNL1     0.0317
     81 H         2.379665   -2.437519   -6.928397 H        1 UNL1     0.0317
     82 H         4.772033   -2.962905   -7.470844 H        1 UNL1     0.0428
     83 H         4.019762   -4.188221   -6.473651 H        1 UNL1     0.0428
     84 H         6.515859   -1.378525   -4.479097 H        1 UNL1     0.0428
     85 H         6.381531   -1.205225   -6.194045 H        1 UNL1     0.0428
     86 H         4.97695   0.306205   -4.791339 H        1 UNL1     0.0317
     87 H         4.137386   -0.985557   -4.064129 H        1 UNL1     0.0317
     88 H         6.775466   -4.031495   -6.485587 H        1 UNL1     0.0429
     89 H         7.284993   -3.593906   -4.853064 H        1 UNL1     0.0429
     90 H         5.584603   -5.872652   -5.832261 H        1 UNL1     0.0308
     91 H         7.472908   -5.414821   -3.461322 H        1 UNL1     0.0233
     92 H         6.520325   -6.90684   -3.666163 H        1 UNL1     0.0233
     93 H         7.73808   -6.468848   -4.845076 H        1 UNL1     0.0233
     94 H         4.471715   -5.937494   -3.481463 H        1 UNL1     0.0233
     95 H         4.742284   -4.188029   -3.503677 H        1 UNL1     0.0233
     96 H         3.752832   -4.950064   -4.770278 H        1 UNL1     0.0233
     97 H         -3.168322   2.224519   -9.831679 H        1 UNL1     0.0280
     98 H         -2.469491   3.797913   -10.102331 H        1 UNL1     0.0280
     99 H         -2.273994   2.516434   -11.334939 H        1 UNL1     0.0280
     100 H         -0.302055   0.962982   -12.094153 H        1 UNL1     0.2922
     101 H         2.635397   4.613663   -2.666997 H        1 UNL1     0.0236
     102 H         4.384337   4.482958   -3.103101 H        1 UNL1     0.0236
     103 H         3.791911   3.93084   -1.566971 H        1 UNL1     0.0236
     104 H         3.4708   2.231133   -0.125138 H        1 UNL1     0.2098
     105 H         1.303579   -0.544434   -1.007502 H        1 UNL1     0.0234
     106 H         1.473085   -0.333692   0.75827 H        1 UNL1     0.0234
     107 H         0.0   0.0   0.0 H        1 UNL1     0.0234
     108 H         0.305145   3.51183   -1.54893 H        1 UNL1     0.2098
     109 H         -1.627497   -1.068211   -2.976666 H        1 UNL1     0.0234
     110 H         -0.389949   0.080625   -2.375454 H        1 UNL1     0.0234
     111 H         -0.710422   -1.386606   -1.519081 H        1 UNL1     0.0234
     112 H         -0.656333   -0.219939   4.244118 H        1 UNL1     0.0342
     113 H         -1.776031   0.820663   3.294559 H        1 UNL1     0.0342
     114 H         -2.263165   -0.805949   3.779126 H        1 UNL1     0.0342
     115 H         -2.385846   3.504405   1.933677 H        1 UNL1     0.0234
     116 H         -2.969467   3.416868   0.268592 H        1 UNL1     0.0234
     117 H         -3.540081   2.31805   1.541637 H        1 UNL1     0.0234
     118 H         -3.278522   0.774685   -5.409365 H        1 UNL1     0.0309
     119 H         -2.78248   0.43323   -7.096199 H        1 UNL1     0.0309
     120 H         -1.813443   -0.077671   -5.73161 H        1 UNL1     0.0309
     121 H         -4.753254   3.786748   -0.889415 H        1 UNL1     0.0524
     122 H         -5.325955   2.352024   -1.749901 H        1 UNL1     0.0524
     123 H         -4.852418   2.221947   -0.037422 H        1 UNL1     0.0524
@<TRIPOS>BOND
     1     1     2    1
     2     1    42    1
     3     2     3    2
     4     3     4    1
     5     4     5    2
     6     5     7    1
     7     6    75    1
     8     6    76    1
     9     6    77    1
    10     7     9   am
    11     9    10    1
    12    10    11    2
    13    10    43    1
    14    11    14    1
    15    11    15    1
    16    12    13   ar
    17    12    27   ar
    18    12    43    1
    19    13    14    1
    20    13    30   ar
    21    14    17    2
    22    15    16    1
    23    16    17    1
    24    16    18    1
    25    16    22    1
    26    18    19    1
    27    19    20    1
    28    20    21    1
    29    21    22    1
    30    23    24    1
    31    23    88    1
    32    23    89    1
    33    24    25    1
    34    24    26    1
    35    24    90    1
    36    25    91    1
    37    25    92    1
    38    25    93    1
    39    26    94    1
    40    26    95    1
    41    26    96    1
    42    27    28   ar
    43    28    29   ar
    44    29    30   ar
    45    29    31    1
    46    30    33    1
    47    31    32    1
    48    32    33    1
    49    32    35    1
    50    34    97    1
    51    34    98    1
    52    34    99    1
    53    35    61    1
    54    36    37    1
    55    36    60    1
    56    37    38    1
    57    38    39    1
    58    39    40    1
    59    40    41    1
    60    41    42    1
    61    45   100    1
    62    47   101    1
    63    47   102    1
    64    47   103    1
    65    48   104    1
    66    49   105    1
    67    49   106    1
    68    49   107    1
    69    50   108    1
    70    51    59    1
    71    52   109    1
    72    52   110    1
    73    52   111    1
    74    53    54    1
    75    54    55    2
    76    54    56    1
    77    56   112    1
    78    56   113    1
    79    56   114    1
    80    57   115    1
    81    57   116    1
    82    57   117    1
    83    58   118    1
    84    58   119    1
    85    58   120    1
    86    59   121    1
    87    59   122    1
    88    59   123    1
    89    60    61    2
    90     1    47    1
    91     1    62    1
    92     2    63    1
    93     3    64    1
    94     4    65    1
    95     5     6    1
    96     7     8    2
    97     9    78    1
    98    15    79    1
    99    18    80    1
   100    18    81    1
   101    19    82    1
   102    19    83    1
   103    20    23    1
   104    21    84    1
   105    21    85    1
   106    22    86    1
   107    22    87    1
   108    27    45    1
   109    28    34    1
   110    32    58    1
   111    33    46    2
   112    36    51    1
   113    36    66    1
   114    37    52    1
   115    37    67    1
   116    38    53    1
   117    38    68    1
   118    42    48    1
   119    42    72    1
   120    43    44    2
   121    60    73    1
   122    61    74    1
   123    39    69    1
   124    39    57    1
   125    40    70    1
   126    40    50    1
   127    41    71    1
   128    41    49    1
