@<TRIPOS>MOLECULE
*****
 123 128 0 0 0
SMALL
GASTEIGER

@<TRIPOS>ATOM
     1 C         -1.0527   -4.646647   -2.659305 C.3        1 UNL1     0.0009
     2 C         -1.218004   -5.427146   -4.332785 C.2        1 UNL1     -0.0787
     3 C         -2.044498   -5.984553   -5.382667 C.2        1 UNL1     -0.0649
     4 C         -1.564721   -6.496638   -6.923426 C.2        1 UNL1     -0.0542
     5 C         -2.002076   -6.783496   -8.240055 C.2        1 UNL1     0.0115
     6 C         -3.258776   -6.978047   -9.132342 C.3        1 UNL1     -0.0348
     7 C         -0.918035   -6.846268   -9.422386 C.2        1 UNL1     0.2441
     8 O         -0.497628   -7.898018   -9.88456 O.2        1 UNL1     -0.2702
     9 N         -0.679155   -5.620654   -10.06811 N.am        1 UNL1     -0.2772
     10 C         0.311048   -4.920417   -9.418119 C.2        1 UNL1     0.1049
     11 C         -0.067766   -4.217511   -8.366147 C.2        1 UNL1     0.0801
     12 C         2.617244   -5.156195   -8.478331 C.ar        1 UNL1     0.0753
     13 C         2.101918   -4.575508   -7.275896 C.ar        1 UNL1     0.0305
     14 C         0.774304   -3.967077   -7.227913 C.2        1 UNL1     0.0924
     15 N         -1.301658   -3.899295   -7.938625 N.pl3        1 UNL1     -0.3170
     16 C         -1.162925   -2.974279   -6.845304 C.3        1 UNL1     0.1275
     17 N         0.180317   -3.302662   -6.240664 N.2        1 UNL1     -0.2557
     18 C         -1.026473   -1.579269   -7.447824 C.3        1 UNL1     0.0016
     19 C         -2.226559   -1.316931   -8.343683 C.3        1 UNL1     0.0026
     20 N         -3.439394   -1.426324   -7.544875 N.3        1 UNL1     -0.3018
     21 C         -3.627881   -2.714209   -6.873912 C.3        1 UNL1     0.0026
     22 C         -2.413247   -2.955276   -5.975889 C.3        1 UNL1     0.0016
     23 C         -4.60997   -0.905839   -8.222732 C.3        1 UNL1     0.0012
     24 C         -5.254003   -1.993217   -9.097139 C.3        1 UNL1     -0.0339
     25 C         -6.788667   -1.943185   -9.017392 C.3        1 UNL1     -0.0615
     26 C         -4.764281   -1.867604   -10.529331 C.3        1 UNL1     -0.0615
     27 C         3.926868   -5.625139   -8.549719 C.ar        1 UNL1     0.1347
     28 C         4.823891   -5.53163   -7.500597 C.ar        1 UNL1     0.0342
     29 C         4.279902   -5.001089   -6.311578 C.ar        1 UNL1     0.1435
     30 C         2.959429   -4.560508   -6.21431 C.ar        1 UNL1     0.0774
     31 O         5.054916   -4.743976   -5.235356 O.3        1 UNL1     -0.4436
     32 C         4.291605   -3.813522   -4.452741 C.3        1 UNL1     0.3143
     33 C         2.851503   -4.032503   -4.870313 C.2        1 UNL1     0.2504
     34 C         6.304438   -5.779632   -7.581686 C.3        1 UNL1     -0.0327
     35 O         4.395746   -4.22262   -3.083418 O.2        1 UNL1     -0.4528
     36 C         4.118496   -1.045947   -1.0243 C.3        1 UNL1     0.0854
     37 C         2.9614   0.025441   -0.996344 C.3        1 UNL1     0.0236
     38 C         2.341181   0.312674   0.454369 C.3        1 UNL1     0.1131
     39 C         1.866771   -0.895411   1.358657 C.3        1 UNL1     0.0200
     40 C         0.996135   -2.155042   0.697024 C.3        1 UNL1     0.0661
     41 C         -0.379276   -2.004706   -0.284432 C.3        1 UNL1     0.0091
     42 C         -0.979841   -3.058184   -1.660989 C.3        1 UNL1     0.0661
     43 C         1.738887   -5.161083   -9.67446 C.2        1 UNL1     0.2131
     44 O         2.155606   -5.250066   -10.815146 O.2        1 UNL1     -0.2851
     45 O         4.335737   -6.217778   -9.742632 O.3        1 UNL1     -0.5056
     46 O         1.84304   -3.836384   -4.229693 O.2        1 UNL1     -0.2836
     47 C         -1.257528   -5.709129   -1.54613 C.3        1 UNL1     -0.0566
     48 O         -2.374849   -3.113871   -1.161021 O.3        1 UNL1     -0.3909
     49 C         -0.495854   -0.568673   -0.744554 C.3        1 UNL1     -0.0577
     50 O         1.861799   -3.139281   0.168231 O.3        1 UNL1     -0.3910
     51 O         4.344937   -1.739748   0.181849 O.3        1 UNL1     -0.3753
     52 C         2.073062   -0.043934   -2.281253 C.3        1 UNL1     -0.0564
     53 O         1.508823   1.559982   0.515435 O.3        1 UNL1     -0.4608
     54 C         0.606842   1.866537   1.500516 C.2        1 UNL1     0.3042
     55 O         -0.143876   1.092449   2.09301 O.2        1 UNL1     -0.2512
     56 C         0.619917   3.315085   1.898321 C.3        1 UNL1     0.0332
     57 C         3.07023   -1.259523   2.347234 C.3        1 UNL1     -0.0567
     58 C         4.731691   -2.40045   -4.901161 C.3        1 UNL1     0.0210
     59 C         5.660714   -2.271531   0.32951 C.3        1 UNL1     0.0372
     60 C         3.998493   -2.073342   -2.094449 C.2        1 UNL1     -0.0208
     61 C         4.164481   -3.395771   -2.045717 C.2        1 UNL1     0.0882
     62 H         0.028927   -4.569654   -2.823216 H        1 UNL1     0.0365
     63 H         -0.167709   -5.537798   -4.610465 H        1 UNL1     0.0576
     64 H         -3.134944   -5.971543   -5.320503 H        1 UNL1     0.0615
     65 H         -0.474954   -6.550269   -6.85262 H        1 UNL1     0.0622
     66 H         5.023449   -0.468753   -1.260844 H        1 UNL1     0.0645
     67 H         3.474334   0.979597   -1.208583 H        1 UNL1     0.0362
     68 H         3.23086   0.721649   0.957094 H        1 UNL1     0.0741
     69 H         1.196922   -0.518268   2.119888 H        1 UNL1     0.0359
     70 H         0.589537   -2.611247   1.619854 H        1 UNL1     0.0600
     71 H         -1.173021   -2.050607   0.486813 H        1 UNL1     0.0348
     72 H         -0.278612   -3.680646   -1.086416 H        1 UNL1     0.0602
     73 H         3.866217   -1.589263   -3.030088 H        1 UNL1     0.0628
     74 H         4.247561   -3.973295   -1.124413 H        1 UNL1     0.1022
     75 H         -2.996535   -7.538369   -10.062021 H        1 UNL1     0.0279
     76 H         -4.061995   -7.580679   -8.714317 H        1 UNL1     0.0279
     77 H         -3.635564   -6.032158   -9.548307 H        1 UNL1     0.0279
     78 H         -1.522732   -5.05153   -10.044593 H        1 UNL1     0.1553
     79 H         -2.119056   -3.935812   -8.519538 H        1 UNL1     0.1484
     80 H         -0.963938   -0.843968   -6.636536 H        1 UNL1     0.0317
     81 H         -0.098816   -1.490645   -8.023366 H        1 UNL1     0.0317
     82 H         -2.253414   -2.006176   -9.200498 H        1 UNL1     0.0428
     83 H         -2.10812   -0.317884   -8.764309 H        1 UNL1     0.0428
     84 H         -4.503382   -2.742994   -6.217801 H        1 UNL1     0.0428
     85 H         -3.805551   -3.526948   -7.591691 H        1 UNL1     0.0428
     86 H         -2.645788   -3.834515   -5.40418 H        1 UNL1     0.0317
     87 H         -2.347552   -2.167884   -5.215103 H        1 UNL1     0.0317
     88 H         -5.336123   -0.594937   -7.460278 H        1 UNL1     0.0429
     89 H         -4.364514   -0.015092   -8.815264 H        1 UNL1     0.0429
     90 H         -4.918287   -2.977976   -8.751079 H        1 UNL1     0.0308
     91 H         -7.181886   -1.035799   -9.485507 H        1 UNL1     0.0233
     92 H         -7.229403   -2.817072   -9.502862 H        1 UNL1     0.0233
     93 H         -7.153602   -1.951377   -7.983182 H        1 UNL1     0.0233
     94 H         -5.106297   -0.92208   -10.963893 H        1 UNL1     0.0233
     95 H         -3.670933   -1.873165   -10.552193 H        1 UNL1     0.0233
     96 H         -5.134523   -2.687593   -11.151028 H        1 UNL1     0.0233
     97 H         6.541135   -6.839409   -7.572839 H        1 UNL1     0.0280
     98 H         6.740548   -5.382014   -8.50741 H        1 UNL1     0.0280
     99 H         6.805549   -5.306444   -6.72141 H        1 UNL1     0.0280
     100 H         4.682049   -5.617606   -10.379408 H        1 UNL1     0.2922
     101 H         -0.71561   -6.619255   -1.802357 H        1 UNL1     0.0236
     102 H         -2.306917   -5.905429   -1.3288 H        1 UNL1     0.0236
     103 H         -0.826334   -5.388392   -0.583118 H        1 UNL1     0.0236
     104 H         -2.545236   -2.286653   -0.669443 H        1 UNL1     0.2098
     105 H         -0.01431   -0.361744   -1.696975 H        1 UNL1     0.0234
     106 H         -1.510154   -0.169805   -0.739528 H        1 UNL1     0.0234
     107 H         0.0   0.0   0.0 H        1 UNL1     0.0234
     108 H         2.14919   -3.702842   0.912256 H        1 UNL1     0.2098
     109 H         1.081491   -0.472316   -2.078798 H        1 UNL1     0.0234
     110 H         1.95889   0.925366   -2.77841 H        1 UNL1     0.0234
     111 H         2.522938   -0.686113   -3.050125 H        1 UNL1     0.0234
     112 H         -0.405805   3.68202   2.001275 H        1 UNL1     0.0342
     113 H         1.188764   3.483911   2.811423 H        1 UNL1     0.0342
     114 H         1.1032   3.887293   1.094468 H        1 UNL1     0.0342
     115 H         3.527662   -2.226152   2.095101 H        1 UNL1     0.0234
     116 H         3.867969   -0.514408   2.368792 H        1 UNL1     0.0234
     117 H         2.746195   -1.441689   3.386348 H        1 UNL1     0.0234
     118 H         5.539022   -1.996448   -4.265547 H        1 UNL1     0.0309
     119 H         5.046799   -2.360828   -5.9487 H        1 UNL1     0.0309
     120 H         3.932627   -1.658378   -4.796597 H        1 UNL1     0.0309
     121 H         5.566006   -3.344206   0.496108 H        1 UNL1     0.0524
     122 H         6.273601   -2.129069   -0.57609 H        1 UNL1     0.0524
     123 H         6.162602   -1.804225   1.172023 H        1 UNL1     0.0524
@<TRIPOS>BOND
     1     1     2    1
     2     1    42    1
     3     2     3    2
     4     3     4    1
     5     4     5    2
     6     5     7    1
     7     6    75    1
     8     6    76    1
     9     6    77    1
    10     7     9   am
    11     9    10    1
    12    10    11    2
    13    10    43    1
    14    11    14    1
    15    11    15    1
    16    12    13   ar
    17    12    27   ar
    18    12    43    1
    19    13    14    1
    20    13    30   ar
    21    14    17    2
    22    15    16    1
    23    16    17    1
    24    16    18    1
    25    16    22    1
    26    18    19    1
    27    19    20    1
    28    20    21    1
    29    21    22    1
    30    23    24    1
    31    23    88    1
    32    23    89    1
    33    24    25    1
    34    24    26    1
    35    24    90    1
    36    25    91    1
    37    25    92    1
    38    25    93    1
    39    26    94    1
    40    26    95    1
    41    26    96    1
    42    27    28   ar
    43    28    29   ar
    44    29    30   ar
    45    29    31    1
    46    30    33    1
    47    31    32    1
    48    32    33    1
    49    32    35    1
    50    34    97    1
    51    34    98    1
    52    34    99    1
    53    35    61    1
    54    36    37    1
    55    36    60    1
    56    37    38    1
    57    38    39    1
    58    39    40    1
    59    40    41    1
    60    41    42    1
    61    45   100    1
    62    47   101    1
    63    47   102    1
    64    47   103    1
    65    48   104    1
    66    49   105    1
    67    49   106    1
    68    49   107    1
    69    50   108    1
    70    51    59    1
    71    52   109    1
    72    52   110    1
    73    52   111    1
    74    53    54    1
    75    54    55    2
    76    54    56    1
    77    56   112    1
    78    56   113    1
    79    56   114    1
    80    57   115    1
    81    57   116    1
    82    57   117    1
    83    58   118    1
    84    58   119    1
    85    58   120    1
    86    59   121    1
    87    59   122    1
    88    59   123    1
    89    60    61    2
    90     1    47    1
    91     1    62    1
    92     2    63    1
    93     3    64    1
    94     4    65    1
    95     5     6    1
    96     7     8    2
    97     9    78    1
    98    15    79    1
    99    18    80    1
   100    18    81    1
   101    19    82    1
   102    19    83    1
   103    20    23    1
   104    21    84    1
   105    21    85    1
   106    22    86    1
   107    22    87    1
   108    27    45    1
   109    28    34    1
   110    32    58    1
   111    33    46    2
   112    36    51    1
   113    36    66    1
   114    37    52    1
   115    37    67    1
   116    38    53    1
   117    38    68    1
   118    42    48    1
   119    42    72    1
   120    43    44    2
   121    60    73    1
   122    61    74    1
   123    39    69    1
   124    39    57    1
   125    40    70    1
   126    40    50    1
   127    41    71    1
   128    41    49    1
