@<TRIPOS>MOLECULE
*****
 123 128 0 0 0
SMALL
GASTEIGER

@<TRIPOS>ATOM
     1 C         2.603506   1.903573   -2.573458 C.3        1 UNL1     0.0009
     2 C         2.217314   3.243368   -3.795277 C.2        1 UNL1     -0.0787
     3 C         1.885333   3.657313   -5.142305 C.2        1 UNL1     -0.0649
     4 C         1.491802   5.211594   -5.686089 C.2        1 UNL1     -0.0542
     5 C         0.868468   5.958011   -6.716329 C.2        1 UNL1     0.0115
     6 C         0.255838   5.865199   -8.140897 C.3        1 UNL1     -0.0348
     7 C         0.447407   7.479893   -6.427238 C.2        1 UNL1     0.2441
     8 O         1.093957   8.437159   -6.829905 O.2        1 UNL1     -0.2702
     9 N         -0.848237   7.643876   -5.907076 N.am        1 UNL1     -0.2772
     10 C         -0.828544   7.559934   -4.5338 C.2        1 UNL1     0.1049
     11 C         -0.849203   6.341444   -4.024802 C.2        1 UNL1     0.0801
     12 C         0.359701   8.426651   -2.510384 C.ar        1 UNL1     0.0753
     13 C         0.495815   7.061583   -2.10213 C.ar        1 UNL1     0.0305
     14 C         -0.220309   5.984565   -2.78202 C.2        1 UNL1     0.0924
     15 N         -1.097344   5.161394   -4.618463 N.pl3        1 UNL1     -0.3170
     16 C         -1.166997   4.157965   -3.589612 C.3        1 UNL1     0.1275
     17 N         -0.290716   4.690674   -2.482329 N.2        1 UNL1     -0.2557
     18 C         -2.591765   4.167886   -3.044048 C.3        1 UNL1     0.0016
     19 C         -3.556325   3.95076   -4.199067 C.3        1 UNL1     0.0026
     20 N         -3.247089   2.676869   -4.833577 N.3        1 UNL1     -0.3018
     21 C         -1.877611   2.548814   -5.336072 C.3        1 UNL1     0.0026
     22 C         -0.925723   2.765956   -4.15851 C.3        1 UNL1     0.0016
     23 C         -4.28342   2.234667   -5.745234 C.3        1 UNL1     0.0012
     24 C         -4.66159   3.362217   -6.718566 C.3        1 UNL1     -0.0339
     25 C         -3.987214   3.173296   -8.087355 C.3        1 UNL1     -0.0615
     26 C         -6.172123   3.454066   -6.847536 C.3        1 UNL1     -0.0615
     27 C         0.948452   9.459269   -1.784307 C.ar        1 UNL1     0.1347
     28 C         1.660588   9.254414   -0.615997 C.ar        1 UNL1     0.0342
     29 C         1.822873   7.898615   -0.260137 C.ar        1 UNL1     0.1435
     30 C         1.269392   6.851264   -0.997657 C.ar        1 UNL1     0.0774
     31 O         2.397245   7.540765   0.909071 O.3        1 UNL1     -0.4436
     32 C         1.964388   6.189489   1.127158 C.3        1 UNL1     0.3143
     33 C         1.609953   5.660258   -0.247798 C.2        1 UNL1     0.2504
     34 C         2.102977   10.321968   0.345627 C.3        1 UNL1     -0.0327
     35 O         3.102251   5.445531   1.579977 O.2        1 UNL1     -0.4528
     36 C         1.730633   2.710995   3.826989 C.3        1 UNL1     0.0854
     37 C         0.670817   1.58999   3.498875 C.3        1 UNL1     0.0236
     38 C         1.162008   0.09066   3.786078 C.3        1 UNL1     0.1131
     39 C         2.547035   -0.406531   3.205758 C.3        1 UNL1     0.0200
     40 C         2.986376   -0.041464   1.638549 C.3        1 UNL1     0.0661
     41 C         2.025958   -0.268525   0.258821 C.3        1 UNL1     0.0091
     42 C         1.941394   0.68988   -1.303137 C.3        1 UNL1     0.0661
     43 C         -0.504006   8.714124   -3.682404 C.2        1 UNL1     0.2131
     44 O         -1.012453   9.800239   -3.893524 O.2        1 UNL1     -0.2851
     45 O         0.806207   10.755572   -2.275025 O.3        1 UNL1     -0.5056
     46 O         1.62653   4.515605   -0.641941 O.2        1 UNL1     -0.2836
     47 C         4.047998   1.377262   -2.788916 C.3        1 UNL1     -0.0566
     48 O         1.998822   -0.508437   -2.174833 O.3        1 UNL1     -0.3909
     49 C         0.601186   -0.530126   0.693659 C.3        1 UNL1     -0.0577
     50 O         3.629186   1.215866   1.578224 O.3        1 UNL1     -0.3910
     51 O         3.023129   2.257983   4.161155 O.3        1 UNL1     -0.3753
     52 C         -0.195377   1.955974   2.249589 C.3        1 UNL1     -0.0564
     53 O         0.046713   -0.913366   3.805437 O.3        1 UNL1     -0.4608
     54 C         -1.278065   -0.634373   3.593177 C.2        1 UNL1     0.3042
     55 O         -1.752476   0.346188   3.021099 O.2        1 UNL1     -0.2512
     56 C         -2.205402   -1.708118   4.086971 C.3        1 UNL1     0.0332
     57 C         3.646453   -0.215792   4.351652 C.3        1 UNL1     -0.0567
     58 C         0.674864   6.274942   1.976483 C.3        1 UNL1     0.0210
     59 C         4.046535   2.633515   3.240567 C.3        1 UNL1     0.0372
     60 C         1.898343   3.74628   2.770949 C.2        1 UNL1     -0.0208
     61 C         3.004607   4.285002   2.256456 C.2        1 UNL1     0.0882
     62 H         2.661977   2.664812   -1.786179 H        1 UNL1     0.0365
     63 H         2.35191   4.130912   -3.173491 H        1 UNL1     0.0576
     64 H         1.694993   2.929531   -5.934273 H        1 UNL1     0.0615
     65 H         1.791204   5.860721   -4.858759 H        1 UNL1     0.0622
     66 H         1.316672   3.235222   4.699839 H        1 UNL1     0.0645
     67 H         -0.104655   1.719129   4.273811 H        1 UNL1     0.0362
     68 H         1.306581   0.149986   4.87562 H        1 UNL1     0.0741
     69 H         2.557583   -1.488329   3.209093 H        1 UNL1     0.0359
     70 H         3.801382   -0.776057   1.492951 H        1 UNL1     0.0600
     71 H         2.35209   -1.284451   -0.038649 H        1 UNL1     0.0348
     72 H         2.905422   0.947602   -0.841027 H        1 UNL1     0.0602
     73 H         0.947091   4.143939   2.517502 H        1 UNL1     0.0628
     74 H         4.011649   3.899813   2.41996 H        1 UNL1     0.1022
     75 H         0.211615   6.875218   -8.615175 H        1 UNL1     0.0279
     76 H         0.815285   5.286985   -8.872851 H        1 UNL1     0.0279
     77 H         -0.807538   5.584502   -8.129059 H        1 UNL1     0.0279
     78 H         -1.451557   6.89963   -6.250851 H        1 UNL1     0.1553
     79 H         -1.567279   5.069463   -5.500303 H        1 UNL1     0.1484
     80 H         -2.690106   3.380757   -2.286734 H        1 UNL1     0.0317
     81 H         -2.811657   5.115794   -2.541287 H        1 UNL1     0.0317
     82 H         -3.513707   4.775513   -4.925619 H        1 UNL1     0.0428
     83 H         -4.566274   3.963205   -3.788094 H        1 UNL1     0.0428
     84 H         -1.64796   1.556059   -5.73546 H        1 UNL1     0.0428
     85 H         -1.686672   3.226484   -6.179649 H        1 UNL1     0.0428
     86 H         0.054525   2.534602   -4.532111 H        1 UNL1     0.0317
     87 H         -1.093886   1.997501   -3.394117 H        1 UNL1     0.0317
     88 H         -3.890211   1.389523   -6.325247 H        1 UNL1     0.0429
     89 H         -5.163902   1.869364   -5.201102 H        1 UNL1     0.0429
     90 H         -4.337847   4.322242   -6.299335 H        1 UNL1     0.0308
     91 H         -4.307949   3.94083   -8.798075 H        1 UNL1     0.0233
     92 H         -2.899548   3.206705   -7.990014 H        1 UNL1     0.0233
     93 H         -4.224108   2.202437   -8.539184 H        1 UNL1     0.0233
     94 H         -6.465487   4.469033   -7.136702 H        1 UNL1     0.0233
     95 H         -6.523313   2.767759   -7.62317 H        1 UNL1     0.0233
     96 H         -6.668881   3.205962   -5.905387 H        1 UNL1     0.0233
     97 H         2.535788   11.176775   -0.16546 H        1 UNL1     0.0280
     98 H         1.2675   10.717378   0.937983 H        1 UNL1     0.0280
     99 H         2.860729   9.909572   1.031802 H        1 UNL1     0.0280
     100 H         0.042866   11.210126   -1.964681 H        1 UNL1     0.2922
     101 H         4.726059   2.216538   -2.942229 H        1 UNL1     0.0236
     102 H         4.121127   0.641022   -3.588657 H        1 UNL1     0.0236
     103 H         4.438421   0.861609   -1.895683 H        1 UNL1     0.0236
     104 H         1.308317   -1.128785   -1.869314 H        1 UNL1     0.2098
     105 H         0.305836   -1.575771   0.658938 H        1 UNL1     0.0234
     106 H         0.330846   -0.092928   1.654753 H        1 UNL1     0.0234
     107 H         0.0   0.0   0.0 H        1 UNL1     0.0234
     108 H         4.19509   1.290677   2.370641 H        1 UNL1     0.2098
     109 H         -0.012591   1.27857   1.403762 H        1 UNL1     0.0234
     110 H         -1.268651   1.991325   2.465409 H        1 UNL1     0.0234
     111 H         0.034874   2.963581   1.878566 H        1 UNL1     0.0234
     112 H         -2.69923   -1.379443   5.006456 H        1 UNL1     0.0342
     113 H         -2.935993   -1.996916   3.332865 H        1 UNL1     0.0342
     114 H         -1.605009   -2.596622   4.326244 H        1 UNL1     0.0342
     115 H         3.830593   0.845488   4.56837 H        1 UNL1     0.0234
     116 H         3.394093   -0.704539   5.29478 H        1 UNL1     0.0234
     117 H         4.654986   -0.550565   4.053777 H        1 UNL1     0.0234
     118 H         0.510031   7.289733   2.37902 H        1 UNL1     0.0309
     119 H         -0.219793   5.955735   1.432518 H        1 UNL1     0.0309
     120 H         0.721702   5.651054   2.875748 H        1 UNL1     0.0309
     121 H         3.602297   2.658445   2.245888 H        1 UNL1     0.0524
     122 H         4.449073   3.638645   3.449646 H        1 UNL1     0.0524
     123 H         4.860483   1.914671   3.269654 H        1 UNL1     0.0524
@<TRIPOS>BOND
     1     1     2    1
     2     1    42    1
     3     2     3    2
     4     3     4    1
     5     4     5    2
     6     5     7    1
     7     6    75    1
     8     6    76    1
     9     6    77    1
    10     7     9   am
    11     9    10    1
    12    10    11    2
    13    10    43    1
    14    11    14    1
    15    11    15    1
    16    12    13   ar
    17    12    27   ar
    18    12    43    1
    19    13    14    1
    20    13    30   ar
    21    14    17    2
    22    15    16    1
    23    16    17    1
    24    16    18    1
    25    16    22    1
    26    18    19    1
    27    19    20    1
    28    20    21    1
    29    21    22    1
    30    23    24    1
    31    23    88    1
    32    23    89    1
    33    24    25    1
    34    24    26    1
    35    24    90    1
    36    25    91    1
    37    25    92    1
    38    25    93    1
    39    26    94    1
    40    26    95    1
    41    26    96    1
    42    27    28   ar
    43    28    29   ar
    44    29    30   ar
    45    29    31    1
    46    30    33    1
    47    31    32    1
    48    32    33    1
    49    32    35    1
    50    34    97    1
    51    34    98    1
    52    34    99    1
    53    35    61    1
    54    36    37    1
    55    36    60    1
    56    37    38    1
    57    38    39    1
    58    39    40    1
    59    40    41    1
    60    41    42    1
    61    45   100    1
    62    47   101    1
    63    47   102    1
    64    47   103    1
    65    48   104    1
    66    49   105    1
    67    49   106    1
    68    49   107    1
    69    50   108    1
    70    51    59    1
    71    52   109    1
    72    52   110    1
    73    52   111    1
    74    53    54    1
    75    54    55    2
    76    54    56    1
    77    56   112    1
    78    56   113    1
    79    56   114    1
    80    57   115    1
    81    57   116    1
    82    57   117    1
    83    58   118    1
    84    58   119    1
    85    58   120    1
    86    59   121    1
    87    59   122    1
    88    59   123    1
    89    60    61    2
    90     1    47    1
    91     1    62    1
    92     2    63    1
    93     3    64    1
    94     4    65    1
    95     5     6    1
    96     7     8    2
    97     9    78    1
    98    15    79    1
    99    18    80    1
   100    18    81    1
   101    19    82    1
   102    19    83    1
   103    20    23    1
   104    21    84    1
   105    21    85    1
   106    22    86    1
   107    22    87    1
   108    27    45    1
   109    28    34    1
   110    32    58    1
   111    33    46    2
   112    36    51    1
   113    36    66    1
   114    37    52    1
   115    37    67    1
   116    38    53    1
   117    38    68    1
   118    42    48    1
   119    42    72    1
   120    43    44    2
   121    60    73    1
   122    61    74    1
   123    39    69    1
   124    39    57    1
   125    40    70    1
   126    40    50    1
   127    41    71    1
   128    41    49    1
