@<TRIPOS>MOLECULE
*****
 123 128 0 0 0
SMALL
GASTEIGER

@<TRIPOS>ATOM
     1 C         3.287098   3.616434   0.953149 C.3        1 UNL1     0.0009
     2 C         3.27415   5.469673   0.904422 C.2        1 UNL1     -0.0787
     3 C         3.759905   6.714964   0.34824 C.2        1 UNL1     -0.0649
     4 C         3.215581   8.283992   0.677207 C.2        1 UNL1     -0.0542
     5 C         3.172239   9.620097   0.208142 C.2        1 UNL1     0.0115
     6 C         3.737665   10.59572   -0.860397 C.3        1 UNL1     -0.0348
     7 C         2.085719   10.626195   0.828006 C.2        1 UNL1     0.2441
     8 O         2.364583   11.472962   1.665709 O.2        1 UNL1     -0.2702
     9 N         0.850609   10.645534   0.156977 N.am        1 UNL1     -0.2772
     10 C         0.011001   9.682946   0.668648 C.2        1 UNL1     0.1049
     11 C         0.173116   8.459537   0.198318 C.2        1 UNL1     0.0801
     12 C         -0.89207   8.778131   2.818789 C.ar        1 UNL1     0.0753
     13 C         -0.503656   7.484033   2.346506 C.ar        1 UNL1     0.0305
     14 C         -0.078414   7.269531   0.965126 C.2        1 UNL1     0.0924
     15 N         0.885558   8.026781   -0.856043 N.pl3        1 UNL1     -0.3170
     16 C         0.591498   6.630621   -1.041837 C.3        1 UNL1     0.1275
     17 N         0.218166   6.136696   0.334529 N.2        1 UNL1     -0.2557
     18 C         -0.679127   6.544048   -1.881908 C.3        1 UNL1     0.0016
     19 C         -0.462169   7.31714   -3.172972 C.3        1 UNL1     0.0026
     20 N         0.673102   6.739437   -3.87898 N.3        1 UNL1     -0.3018
     21 C         1.92931   6.721323   -3.126662 C.3        1 UNL1     0.0026
     22 C         1.689654   5.935848   -1.836125 C.3        1 UNL1     0.0016
     23 C         0.779949   7.201487   -5.248555 C.3        1 UNL1     0.0012
     24 C         1.582624   8.510356   -5.314357 C.3        1 UNL1     -0.0339
     25 C         1.160277   9.485523   -4.203173 C.3        1 UNL1     -0.0615
     26 C         3.070835   8.211887   -5.260261 C.3        1 UNL1     -0.0615
     27 C         -1.4105   8.953333   4.099669 C.ar        1 UNL1     0.1347
     28 C         -1.623417   7.908262   4.980886 C.ar        1 UNL1     0.0342
     29 C         -1.188204   6.65038   4.512391 C.ar        1 UNL1     0.1435
     30 C         -0.63366   6.465337   3.245324 C.ar        1 UNL1     0.0774
     31 O         -1.426794   5.517786   5.209034 O.3        1 UNL1     -0.4436
     32 C         -1.286321   4.462951   4.245467 C.3        1 UNL1     0.3143
     33 C         -0.406719   5.03814   3.15383 C.2        1 UNL1     0.2504
     34 C         -2.402342   7.982183   6.264596 C.3        1 UNL1     -0.0327
     35 O         -0.540922   3.411107   4.870972 O.2        1 UNL1     -0.4528
     36 C         -1.740921   0.187967   3.264901 C.3        1 UNL1     0.0854
     37 C         -1.745203   -0.225335   1.742835 C.3        1 UNL1     0.0236
     38 C         -0.995234   -1.604364   1.414858 C.3        1 UNL1     0.1131
     39 C         0.473938   -1.845515   1.94932 C.3        1 UNL1     0.0200
     40 C         1.617017   -0.634417   1.854183 C.3        1 UNL1     0.0661
     41 C         1.985878   0.277447   0.472135 C.3        1 UNL1     0.0091
     42 C         2.543939   2.01732   0.308391 C.3        1 UNL1     0.0661
     43 C         -0.808188   9.914224   1.867728 C.2        1 UNL1     0.2131
     44 O         -1.447413   10.943333   1.990464 O.2        1 UNL1     -0.2851
     45 O         -1.721136   10.251957   4.497813 O.3        1 UNL1     -0.5056
     46 O         0.33206   4.452209   2.394393 O.2        1 UNL1     -0.2836
     47 C         4.570814   3.104533   1.660264 C.3        1 UNL1     -0.0566
     48 O         3.639573   1.696502   -0.638065 O.3        1 UNL1     -0.3909
     49 C         0.899101   0.063873   -0.557815 C.3        1 UNL1     -0.0577
     50 O         1.548225   0.209658   2.985787 O.3        1 UNL1     -0.3910
     51 O         -0.940045   -0.601234   4.115307 O.3        1 UNL1     -0.3753
     52 C         -1.645495   1.019347   0.801678 C.3        1 UNL1     -0.0564
     53 O         -1.307934   -2.148599   0.051644 O.3        1 UNL1     -0.4608
     54 C         -2.31916   -1.714557   -0.765032 C.2        1 UNL1     0.3042
     55 O         -3.480142   -1.461167   -0.446044 O.2        1 UNL1     -0.2512
     56 C         -1.888959   -1.487909   -2.186394 C.3        1 UNL1     0.0332
     57 C         0.360317   -2.656877   3.322985 C.3        1 UNL1     -0.0567
     58 C         -2.697615   4.208421   3.666681 C.3        1 UNL1     0.0210
     59 C         -1.284639   -0.531535   5.498153 C.3        1 UNL1     0.0372
     60 C         -1.379567   1.607208   3.530117 C.2        1 UNL1     -0.0208
     61 C         -0.560355   2.135007   4.440647 C.2        1 UNL1     0.0882
     62 H         2.501181   3.650141   1.717289 H        1 UNL1     0.0365
     63 H         2.591709   5.69022   1.727891 H        1 UNL1     0.0576
     64 H         4.450399   6.733192   -0.497925 H        1 UNL1     0.0615
     65 H         2.604765   8.164806   1.576196 H        1 UNL1     0.0622
     66 H         -2.787168   0.078828   3.583494 H        1 UNL1     0.0645
     67 H         -2.796702   -0.493936   1.540933 H        1 UNL1     0.0362
     68 H         -1.630731   -2.299384   1.984606 H        1 UNL1     0.0741
     69 H         0.92612   -2.643906   1.376161 H        1 UNL1     0.0359
     70 H         2.537896   -1.228855   2.008079 H        1 UNL1     0.0600
     71 H         2.807575   -0.334199   0.050639 H        1 UNL1     0.0348
     72 H         2.75738   1.726892   1.347338 H        1 UNL1     0.0602
     73 H         -1.990729   2.240124   2.935857 H        1 UNL1     0.0628
     74 H         0.139537   1.559734   5.047647 H        1 UNL1     0.1022
     75 H         4.593386   10.128054   -1.404515 H        1 UNL1     0.0279
     76 H         3.066142   10.869529   -1.671048 H        1 UNL1     0.0279
     77 H         4.219644   11.479289   -0.416886 H        1 UNL1     0.0279
     78 H         0.993461   10.434939   -0.828579 H        1 UNL1     0.1553
     79 H         1.191637   8.622119   -1.603586 H        1 UNL1     0.1484
     80 H         -0.905701   5.489413   -2.079836 H        1 UNL1     0.0317
     81 H         -1.537111   6.952031   -1.336872 H        1 UNL1     0.0317
     82 H         -0.306782   8.389571   -2.984134 H        1 UNL1     0.0428
     83 H         -1.380755   7.243903   -3.755969 H        1 UNL1     0.0428
     84 H         2.745343   6.211069   -3.64776 H        1 UNL1     0.0428
     85 H         2.316298   7.73489   -2.95277 H        1 UNL1     0.0428
     86 H         2.655614   5.829415   -1.378324 H        1 UNL1     0.0317
     87 H         1.405983   4.903168   -2.073191 H        1 UNL1     0.0317
     88 H         1.31271   6.435339   -5.826894 H        1 UNL1     0.0429
     89 H         -0.209936   7.320524   -5.70761 H        1 UNL1     0.0429
     90 H         1.40844   8.990125   -6.284767 H        1 UNL1     0.0308
     91 H         0.243775   9.151235   -3.707819 H        1 UNL1     0.0233
     92 H         1.952969   9.589434   -3.458558 H        1 UNL1     0.0233
     93 H         0.965387   10.494924   -4.585223 H        1 UNL1     0.0233
     94 H         3.484765   8.528442   -4.296782 H        1 UNL1     0.0233
     95 H         3.240182   7.136365   -5.362911 H        1 UNL1     0.0233
     96 H         3.611302   8.731874   -6.056173 H        1 UNL1     0.0233
     97 H         -1.881328   8.556471   7.024838 H        1 UNL1     0.0280
     98 H         -3.374967   8.473456   6.130781 H        1 UNL1     0.0280
     99 H         -2.569266   6.964578   6.654099 H        1 UNL1     0.0280
     100 H         -2.592178   10.531418   4.276882 H        1 UNL1     0.2922
     101 H         4.603549   2.015974   1.619973 H        1 UNL1     0.0236
     102 H         4.678405   3.479567   2.677494 H        1 UNL1     0.0236
     103 H         5.487594   3.43147   1.141787 H        1 UNL1     0.0236
     104 H         3.42345   2.117454   -1.493086 H        1 UNL1     0.2098
     105 H         0.790792   0.876665   -1.271572 H        1 UNL1     0.0234
     106 H         0.946866   -0.892376   -1.078616 H        1 UNL1     0.0234
     107 H         0.0   -0.0   0.0 H        1 UNL1     0.0234
     108 H         0.751458   0.765365   2.885185 H        1 UNL1     0.2098
     109 H         -0.730045   1.601414   0.977349 H        1 UNL1     0.0234
     110 H         -1.718255   0.762593   -0.260643 H        1 UNL1     0.0234
     111 H         -2.47742   1.717465   0.9644 H        1 UNL1     0.0234
     112 H         -1.463262   -0.485321   -2.291011 H        1 UNL1     0.0342
     113 H         -1.187737   -2.24773   -2.528159 H        1 UNL1     0.0342
     114 H         -2.779435   -1.544273   -2.827519 H        1 UNL1     0.0342
     115 H         0.41329   -3.742406   3.161717 H        1 UNL1     0.0234
     116 H         1.125303   -2.396258   4.0571 H        1 UNL1     0.0234
     117 H         -0.625467   -2.561638   3.809915 H        1 UNL1     0.0234
     118 H         -2.667162   3.971996   2.588635 H        1 UNL1     0.0309
     119 H         -3.240918   3.41643   4.191823 H        1 UNL1     0.0309
     120 H         -3.337201   5.096643   3.71248 H        1 UNL1     0.0309
     121 H         -0.380943   -0.730536   6.073556 H        1 UNL1     0.0524
     122 H         -1.649744   0.467686   5.788486 H        1 UNL1     0.0524
     123 H         -2.048145   -1.267802   5.732808 H        1 UNL1     0.0524
@<TRIPOS>BOND
     1     1     2    1
     2     1    42    1
     3     2     3    2
     4     3     4    1
     5     4     5    2
     6     5     7    1
     7     6    75    1
     8     6    76    1
     9     6    77    1
    10     7     9   am
    11     9    10    1
    12    10    11    2
    13    10    43    1
    14    11    14    1
    15    11    15    1
    16    12    13   ar
    17    12    27   ar
    18    12    43    1
    19    13    14    1
    20    13    30   ar
    21    14    17    2
    22    15    16    1
    23    16    17    1
    24    16    18    1
    25    16    22    1
    26    18    19    1
    27    19    20    1
    28    20    21    1
    29    21    22    1
    30    23    24    1
    31    23    88    1
    32    23    89    1
    33    24    25    1
    34    24    26    1
    35    24    90    1
    36    25    91    1
    37    25    92    1
    38    25    93    1
    39    26    94    1
    40    26    95    1
    41    26    96    1
    42    27    28   ar
    43    28    29   ar
    44    29    30   ar
    45    29    31    1
    46    30    33    1
    47    31    32    1
    48    32    33    1
    49    32    35    1
    50    34    97    1
    51    34    98    1
    52    34    99    1
    53    35    61    1
    54    36    37    1
    55    36    60    1
    56    37    38    1
    57    38    39    1
    58    39    40    1
    59    40    41    1
    60    41    42    1
    61    45   100    1
    62    47   101    1
    63    47   102    1
    64    47   103    1
    65    48   104    1
    66    49   105    1
    67    49   106    1
    68    49   107    1
    69    50   108    1
    70    51    59    1
    71    52   109    1
    72    52   110    1
    73    52   111    1
    74    53    54    1
    75    54    55    2
    76    54    56    1
    77    56   112    1
    78    56   113    1
    79    56   114    1
    80    57   115    1
    81    57   116    1
    82    57   117    1
    83    58   118    1
    84    58   119    1
    85    58   120    1
    86    59   121    1
    87    59   122    1
    88    59   123    1
    89    60    61    2
    90     1    47    1
    91     1    62    1
    92     2    63    1
    93     3    64    1
    94     4    65    1
    95     5     6    1
    96     7     8    2
    97     9    78    1
    98    15    79    1
    99    18    80    1
   100    18    81    1
   101    19    82    1
   102    19    83    1
   103    20    23    1
   104    21    84    1
   105    21    85    1
   106    22    86    1
   107    22    87    1
   108    27    45    1
   109    28    34    1
   110    32    58    1
   111    33    46    2
   112    36    51    1
   113    36    66    1
   114    37    52    1
   115    37    67    1
   116    38    53    1
   117    38    68    1
   118    42    48    1
   119    42    72    1
   120    43    44    2
   121    60    73    1
   122    61    74    1
   123    39    69    1
   124    39    57    1
   125    40    70    1
   126    40    50    1
   127    41    71    1
   128    41    49    1
