@<TRIPOS>MOLECULE
*****
 123 128 0 0 0
SMALL
GASTEIGER

@<TRIPOS>ATOM
     1 C         -0.098443   -3.801868   -1.599197 C.3        1 UNL1     0.0009
     2 C         1.283016   -5.035925   -1.674768 C.2        1 UNL1     -0.0787
     3 C         2.373605   -5.657894   -2.395751 C.2        1 UNL1     -0.0649
     4 C         3.486532   -6.796307   -1.81976 C.2        1 UNL1     -0.0542
     5 C         4.757572   -7.386117   -2.028706 C.2        1 UNL1     0.0115
     6 C         5.938908   -7.503715   -3.030674 C.3        1 UNL1     -0.0348
     7 C         5.455573   -8.176684   -0.818421 C.2        1 UNL1     0.2441
     8 O         5.472845   -9.397577   -0.743276 O.2        1 UNL1     -0.2702
     9 N         6.269297   -7.385028   0.010606 N.am        1 UNL1     -0.2772
     10 C         5.523407   -6.825004   1.02221 C.2        1 UNL1     0.1049
     11 C         4.868896   -5.718738   0.718872 C.2        1 UNL1     0.0801
     12 C         3.841649   -7.381568   2.788353 C.ar        1 UNL1     0.0753
     13 C         3.065293   -6.290829   2.282223 C.ar        1 UNL1     0.0305
     14 C         3.616084   -5.343041   1.316107 C.2        1 UNL1     0.0924
     15 N         4.970883   -4.922807   -0.359377 N.pl3        1 UNL1     -0.3170
     16 C         4.161833   -3.756722   -0.122865 C.3        1 UNL1     0.1275
     17 N         3.082494   -4.23052   0.819614 N.2        1 UNL1     -0.2557
     18 C         5.012739   -2.769217   0.669911 C.3        1 UNL1     0.0016
     19 C         6.29263   -2.498694   -0.10487 C.3        1 UNL1     0.0026
     20 N         5.943197   -1.958263   -1.411338 N.3        1 UNL1     -0.3018
     21 C         5.074175   -2.811185   -2.224782 C.3        1 UNL1     0.0026
     22 C         3.792784   -3.066321   -1.429271 C.3        1 UNL1     0.0016
     23 C         7.07957   -1.390273   -2.108966 C.3        1 UNL1     0.0012
     24 C         8.267966   -1.215975   -1.150273 C.3        1 UNL1     -0.0339
     25 C         8.380269   -2.397783   -0.173147 C.3        1 UNL1     -0.0615
     26 C         9.550169   -1.020203   -1.940467 C.3        1 UNL1     -0.0615
     27 C         3.352988   -8.208348   3.797196 C.ar        1 UNL1     0.1347
     28 C         2.123666   -8.019623   4.403167 C.ar        1 UNL1     0.0342
     29 C         1.356527   -6.969745   3.855065 C.ar        1 UNL1     0.1435
     30 C         1.818187   -6.155871   2.819836 C.ar        1 UNL1     0.0774
     31 O         0.184105   -6.590232   4.408604 O.3        1 UNL1     -0.4436
     32 C         -0.040544   -5.263554   3.908273 C.3        1 UNL1     0.3143
     33 C         0.764218   -5.181862   2.626907 C.2        1 UNL1     0.2504
     34 C         1.642084   -8.703714   5.652246 C.3        1 UNL1     -0.0327
     35 O         -1.422374   -5.175727   3.539378 O.2        1 UNL1     -0.4528
     36 C         -2.408186   -1.54647   4.053928 C.3        1 UNL1     0.0854
     37 C         -1.780317   -0.24444   3.423038 C.3        1 UNL1     0.0236
     38 C         -2.820772   0.703739   2.654824 C.3        1 UNL1     0.1131
     39 C         -3.786704   0.087897   1.56396 C.3        1 UNL1     0.0200
     40 C         -3.209858   -1.008479   0.446979 C.3        1 UNL1     0.0661
     41 C         -1.821717   -0.816085   -0.508875 C.3        1 UNL1     0.0091
     42 C         -0.633382   -2.060283   -1.145455 C.3        1 UNL1     0.0661
     43 C         5.220547   -7.548769   2.265911 C.2        1 UNL1     0.2131
     44 O         6.096494   -8.151833   2.859011 O.2        1 UNL1     -0.2851
     45 O         4.153174   -9.275067   4.201239 O.3        1 UNL1     -0.5056
     46 O         0.566845   -4.485684   1.656219 O.2        1 UNL1     -0.2836
     47 C         -1.307724   -4.294027   -2.439078 C.3        1 UNL1     -0.0566
     48 O         -0.637008   -1.523771   -2.527937 O.3        1 UNL1     -0.3909
     49 C         -1.005707   0.332369   0.041287 C.3        1 UNL1     -0.0577
     50 O         -3.263513   -2.323695   0.96181 O.3        1 UNL1     -0.3910
     51 O         -3.753565   -1.80503   3.721463 O.3        1 UNL1     -0.3753
     52 C         -0.333496   -0.497265   2.886627 C.3        1 UNL1     -0.0564
     53 O         -2.287249   2.078311   2.375126 O.3        1 UNL1     -0.4608
     54 C         -3.046494   3.206004   2.202538 C.2        1 UNL1     0.3042
     55 O         -2.833956   4.327123   2.662711 O.2        1 UNL1     -0.2512
     56 C         -4.227033   3.003244   1.295935 C.3        1 UNL1     0.0332
     57 C         -5.177445   -0.241426   2.281986 C.3        1 UNL1     -0.0567
     58 C         0.573604   -4.294999   4.945699 C.3        1 UNL1     0.0210
     59 C         -4.391734   -2.792295   4.530112 C.3        1 UNL1     0.0372
     60 C         -1.652027   -2.800884   3.789672 C.2        1 UNL1     -0.0208
     61 C         -2.082103   -4.007708   3.419057 C.2        1 UNL1     0.0882
     62 H         -0.290594   -4.10905   -0.564099 H        1 UNL1     0.0365
     63 H         1.157847   -5.540696   -0.714555 H        1 UNL1     0.0576
     64 H         2.683686   -5.303951   -3.38149 H        1 UNL1     0.0615
     65 H         3.045638   -7.139346   -0.879856 H        1 UNL1     0.0622
     66 H         -2.350437   -1.382783   5.139247 H        1 UNL1     0.0645
     67 H         -1.519841   0.378015   4.296687 H        1 UNL1     0.0362
     68 H         -3.472066   0.98264   3.497173 H        1 UNL1     0.0741
     69 H         -4.161322   0.887873   0.939374 H        1 UNL1     0.0359
     70 H         -4.027356   -0.969559   -0.298167 H        1 UNL1     0.0600
     71 H         -2.26987   -0.352111   -1.409343 H        1 UNL1     0.0348
     72 H         -1.544949   -2.617301   -0.884513 H        1 UNL1     0.0602
     73 H         -0.636362   -2.661158   4.065627 H        1 UNL1     0.0628
     74 H         -3.091694   -4.221063   3.066292 H        1 UNL1     0.1022
     75 H         5.775217   -6.835042   -3.909944 H        1 UNL1     0.0279
     76 H         6.913987   -7.183076   -2.670842 H        1 UNL1     0.0279
     77 H         5.989348   -8.490014   -3.514792 H        1 UNL1     0.0279
     78 H         6.671223   -6.62305   -0.531541 H        1 UNL1     0.1553
     79 H         5.76225   -4.919485   -0.976353 H        1 UNL1     0.1484
     80 H         4.438077   -1.848601   0.828012 H        1 UNL1     0.0317
     81 H         5.249028   -3.165699   1.663199 H        1 UNL1     0.0317
     82 H         6.908303   -3.404893   -0.20316 H        1 UNL1     0.0428
     83 H         6.885224   -1.793746   0.479023 H        1 UNL1     0.0428
     84 H         4.762212   -2.348498   -3.166276 H        1 UNL1     0.0428
     85 H         5.582837   -3.733863   -2.536625 H        1 UNL1     0.0428
     86 H         3.130793   -3.578083   -2.102959 H        1 UNL1     0.0317
     87 H         3.275999   -2.118119   -1.237066 H        1 UNL1     0.0317
     88 H         7.37296   -2.085344   -2.90652 H        1 UNL1     0.0429
     89 H         6.817079   -0.439814   -2.591149 H        1 UNL1     0.0429
     90 H         8.12986   -0.295562   -0.570636 H        1 UNL1     0.0308
     91 H         9.180966   -2.237122   0.554984 H        1 UNL1     0.0233
     92 H         7.437885   -2.550749   0.358004 H        1 UNL1     0.0233
     93 H         8.600063   -3.342884   -0.684334 H        1 UNL1     0.0233
     94 H         9.971   -1.990927   -2.224073 H        1 UNL1     0.0233
     95 H         9.342311   -0.461964   -2.857597 H        1 UNL1     0.0233
     96 H         10.298755   -0.475929   -1.357926 H        1 UNL1     0.0233
     97 H         0.737809   -9.279392   5.478719 H        1 UNL1     0.0280
     98 H         2.380262   -9.414869   6.045446 H        1 UNL1     0.0280
     99 H         1.428163   -7.949398   6.427063 H        1 UNL1     0.0280
     100 H         4.133885   -9.450843   5.125551 H        1 UNL1     0.2922
     101 H         -2.162525   -3.639083   -2.271684 H        1 UNL1     0.0236
     102 H         -1.553907   -5.340724   -2.263567 H        1 UNL1     0.0236
     103 H         -1.11327   -4.228958   -3.522659 H        1 UNL1     0.0236
     104 H         -1.046338   -0.636874   -2.499064 H        1 UNL1     0.2098
     105 H         -1.076576   1.250756   -0.536081 H        1 UNL1     0.0234
     106 H         -1.165044   0.53827   1.099655 H        1 UNL1     0.0234
     107 H         0.0   0.0   0.0 H        1 UNL1     0.0234
     108 H         -2.430597   -2.767634   0.710937 H        1 UNL1     0.2098
     109 H         0.417441   0.106725   3.414834 H        1 UNL1     0.0234
     110 H         -0.041766   -1.552611   2.916302 H        1 UNL1     0.0234
     111 H         -0.241576   -0.225375   1.82664 H        1 UNL1     0.0234
     112 H         -4.781902   3.940632   1.192154 H        1 UNL1     0.0342
     113 H         -3.933626   2.613071   0.322528 H        1 UNL1     0.0342
     114 H         -4.895212   2.266238   1.76233 H        1 UNL1     0.0342
     115 H         -5.967146   0.462369   1.984944 H        1 UNL1     0.0234
     116 H         -5.547884   -1.250479   2.090579 H        1 UNL1     0.0234
     117 H         -5.155485   -0.08827   3.37469 H        1 UNL1     0.0234
     118 H         0.489931   -3.240652   4.628906 H        1 UNL1     0.0309
     119 H         0.139998   -4.404254   5.944824 H        1 UNL1     0.0309
     120 H         1.65306   -4.437553   5.066365 H        1 UNL1     0.0309
     121 H         -5.465757   -2.615192   4.480468 H        1 UNL1     0.0524
     122 H         -4.20684   -3.816046   4.164344 H        1 UNL1     0.0524
     123 H         -4.046545   -2.717195   5.557389 H        1 UNL1     0.0524
@<TRIPOS>BOND
     1     1     2    1
     2     1    42    1
     3     2     3    2
     4     3     4    1
     5     4     5    2
     6     5     7    1
     7     6    75    1
     8     6    76    1
     9     6    77    1
    10     7     9   am
    11     9    10    1
    12    10    11    2
    13    10    43    1
    14    11    14    1
    15    11    15    1
    16    12    13   ar
    17    12    27   ar
    18    12    43    1
    19    13    14    1
    20    13    30   ar
    21    14    17    2
    22    15    16    1
    23    16    17    1
    24    16    18    1
    25    16    22    1
    26    18    19    1
    27    19    20    1
    28    20    21    1
    29    21    22    1
    30    23    24    1
    31    23    88    1
    32    23    89    1
    33    24    25    1
    34    24    26    1
    35    24    90    1
    36    25    91    1
    37    25    92    1
    38    25    93    1
    39    26    94    1
    40    26    95    1
    41    26    96    1
    42    27    28   ar
    43    28    29   ar
    44    29    30   ar
    45    29    31    1
    46    30    33    1
    47    31    32    1
    48    32    33    1
    49    32    35    1
    50    34    97    1
    51    34    98    1
    52    34    99    1
    53    35    61    1
    54    36    37    1
    55    36    60    1
    56    37    38    1
    57    38    39    1
    58    39    40    1
    59    40    41    1
    60    41    42    1
    61    45   100    1
    62    47   101    1
    63    47   102    1
    64    47   103    1
    65    48   104    1
    66    49   105    1
    67    49   106    1
    68    49   107    1
    69    50   108    1
    70    51    59    1
    71    52   109    1
    72    52   110    1
    73    52   111    1
    74    53    54    1
    75    54    55    2
    76    54    56    1
    77    56   112    1
    78    56   113    1
    79    56   114    1
    80    57   115    1
    81    57   116    1
    82    57   117    1
    83    58   118    1
    84    58   119    1
    85    58   120    1
    86    59   121    1
    87    59   122    1
    88    59   123    1
    89    60    61    2
    90     1    47    1
    91     1    62    1
    92     2    63    1
    93     3    64    1
    94     4    65    1
    95     5     6    1
    96     7     8    2
    97     9    78    1
    98    15    79    1
    99    18    80    1
   100    18    81    1
   101    19    82    1
   102    19    83    1
   103    20    23    1
   104    21    84    1
   105    21    85    1
   106    22    86    1
   107    22    87    1
   108    27    45    1
   109    28    34    1
   110    32    58    1
   111    33    46    2
   112    36    51    1
   113    36    66    1
   114    37    52    1
   115    37    67    1
   116    38    53    1
   117    38    68    1
   118    42    48    1
   119    42    72    1
   120    43    44    2
   121    60    73    1
   122    61    74    1
   123    39    69    1
   124    39    57    1
   125    40    70    1
   126    40    50    1
   127    41    71    1
   128    41    49    1
