@<TRIPOS>MOLECULE
*****
 123 128 0 0 0
SMALL
GASTEIGER

@<TRIPOS>ATOM
     1 C         5.130934   1.843278   0.536277 C.3        1 UNL1     0.0009
     2 C         6.547562   2.701751   -0.296326 C.2        1 UNL1     -0.0787
     3 C         7.834683   2.649443   -0.957106 C.2        1 UNL1     -0.0649
     4 C         8.679525   3.919357   -1.691898 C.2        1 UNL1     -0.0542
     5 C         9.694855   4.253833   -2.62158 C.2        1 UNL1     0.0115
     6 C         10.844442   3.672809   -3.490017 C.3        1 UNL1     -0.0348
     7 C         9.750108   5.747257   -3.207773 C.2        1 UNL1     0.2441
     8 O         10.548287   6.587089   -2.815195 O.2        1 UNL1     -0.2702
     9 N         8.999443   5.948325   -4.379193 N.am        1 UNL1     -0.2772
     10 C         7.704737   6.2937   -4.066505 C.2        1 UNL1     0.1049
     11 C         6.886005   5.294524   -3.791647 C.2        1 UNL1     0.0801
     12 C         6.354332   7.843197   -2.640742 C.ar        1 UNL1     0.0753
     13 C         5.62611   6.687995   -2.212013 C.ar        1 UNL1     0.0305
     14 C         5.783483   5.395012   -2.874191 C.2        1 UNL1     0.0924
     15 N         7.047575   3.971886   -3.96786 N.pl3        1 UNL1     -0.3170
     16 C         5.794124   3.332272   -3.667842 C.3        1 UNL1     0.1275
     17 N         5.126115   4.255521   -2.678348 N.2        1 UNL1     -0.2557
     18 C         4.945551   3.38382   -4.934716 C.3        1 UNL1     0.0016
     19 C         5.724838   2.736987   -6.068695 C.3        1 UNL1     0.0026
     20 N         6.032861   1.362148   -5.699958 N.3        1 UNL1     -0.3018
     21 C         6.795009   1.207082   -4.45921 C.3        1 UNL1     0.0026
     22 C         5.991716   1.859757   -3.332874 C.3        1 UNL1     0.0016
     23 C         6.505725   0.570758   -6.818325 C.3        1 UNL1     0.0012
     24 C         5.362323   0.30142   -7.809207 C.3        1 UNL1     -0.0339
     25 C         5.712447   0.799946   -9.220923 C.3        1 UNL1     -0.0615
     26 C         5.01056   -1.176092   -7.809385 C.3        1 UNL1     -0.0615
     27 C         6.110833   9.097096   -2.085256 C.ar        1 UNL1     0.1347
     28 C         5.14015   9.325997   -1.126387 C.ar        1 UNL1     0.0342
     29 C         4.46953   8.165743   -0.684523 C.ar        1 UNL1     0.1435
     30 C         4.728067   6.897482   -1.205957 C.ar        1 UNL1     0.0774
     31 O         3.421918   8.237821   0.165372 O.3        1 UNL1     -0.4436
     32 C         2.736702   6.986788   0.003297 C.3        1 UNL1     0.3143
     33 C         3.780548   6.030488   -0.537156 C.2        1 UNL1     0.2504
     34 C         4.652181   10.672627   -0.66969 C.3        1 UNL1     -0.0327
     35 O         2.38296   6.522207   1.311839 O.2        1 UNL1     -0.4528
     36 C         -0.801271   4.503093   0.873731 C.3        1 UNL1     0.0854
     37 C         -1.066142   3.246453   -0.041814 C.3        1 UNL1     0.0236
     38 C         -1.633602   1.958164   0.726331 C.3        1 UNL1     0.1131
     39 C         -0.898627   1.430837   2.024024 C.3        1 UNL1     0.0200
     40 C         0.76587   1.332574   2.071257 C.3        1 UNL1     0.0661
     41 C         1.75217   0.607458   0.896936 C.3        1 UNL1     0.0091
     42 C         3.451086   1.026525   0.346056 C.3        1 UNL1     0.0661
     43 C         7.314927   7.678012   -3.759773 C.2        1 UNL1     0.2131
     44 O         7.69195   8.59681   -4.46433 O.2        1 UNL1     -0.2851
     45 O         6.894962   10.16121   -2.525983 O.3        1 UNL1     -0.5056
     46 O         3.830629   4.826259   -0.42236 O.2        1 UNL1     -0.2836
     47 C         5.533126   1.406049   1.970521 C.3        1 UNL1     -0.0566
     48 O         3.939756   -0.372073   0.411185 O.3        1 UNL1     -0.3909
     49 C         0.930537   0.367695   -0.350031 C.3        1 UNL1     -0.0577
     50 O         1.328981   2.561791   2.483149 O.3        1 UNL1     -0.3910
     51 O         -0.926011   4.291214   2.261888 O.3        1 UNL1     -0.3753
     52 C         -0.012398   3.131608   -1.191328 C.3        1 UNL1     -0.0564
     53 O         -2.202023   0.914492   -0.190169 O.3        1 UNL1     -0.4608
     54 C         -2.368709   -0.409996   0.119471 C.2        1 UNL1     0.3042
     55 O         -1.66525   -1.354529   -0.236676 O.2        1 UNL1     -0.2512
     56 C         -3.523004   -0.670613   1.044888 C.3        1 UNL1     0.0332
     57 C         -1.644214   2.061786   3.290585 C.3        1 UNL1     -0.0567
     58 C         1.659707   7.215435   -1.082673 C.3        1 UNL1     0.0210
     59 C         -1.276325   5.450659   3.016098 C.3        1 UNL1     0.0372
     60 C         0.510056   5.173173   0.657923 C.2        1 UNL1     -0.0208
     61 C         1.406211   5.622732   1.537438 C.2        1 UNL1     0.0882
     62 H         4.626474   2.812098   0.634359 H        1 UNL1     0.0365
     63 H         6.250599   3.745947   -0.178273 H        1 UNL1     0.0576
     64 H         8.320978   1.699213   -1.188811 H        1 UNL1     0.0615
     65 H         8.164739   4.815621   -1.335263 H        1 UNL1     0.0622
     66 H         -1.56574   5.232011   0.569901 H        1 UNL1     0.0645
     67 H         -1.937528   3.539004   -0.653091 H        1 UNL1     0.0362
     68 H         -2.594414   2.362859   1.079294 H        1 UNL1     0.0741
     69 H         -1.201743   0.408088   2.204339 H        1 UNL1     0.0359
     70 H         0.892721   0.663933   2.944119 H        1 UNL1     0.0600
     71 H         1.823264   -0.417685   1.310441 H        1 UNL1     0.0348
     72 H         3.326846   1.498258   1.331626 H        1 UNL1     0.0602
     73 H         0.626808   5.387659   -0.375331 H        1 UNL1     0.0628
     74 H         1.390006   5.397276   2.604277 H        1 UNL1     0.1022
     75 H         10.869381   2.559035   -3.41309 H        1 UNL1     0.0279
     76 H         10.769545   3.831871   -4.563404 H        1 UNL1     0.0279
     77 H         11.841348   3.93881   -3.109065 H        1 UNL1     0.0279
     78 H         8.964855   5.084092   -4.915834 H        1 UNL1     0.1553
     79 H         7.727625   3.571542   -4.587689 H        1 UNL1     0.1484
     80 H         3.997963   2.862887   -4.751765 H        1 UNL1     0.0317
     81 H         4.69037   4.417182   -5.192973 H        1 UNL1     0.0317
     82 H         6.640897   3.298112   -6.305102 H        1 UNL1     0.0428
     83 H         5.102309   2.786126   -6.962615 H        1 UNL1     0.0428
     84 H         6.943957   0.163956   -4.163384 H        1 UNL1     0.0428
     85 H         7.81452   1.605939   -4.553161 H        1 UNL1     0.0428
     86 H         6.511114   1.612151   -2.425733 H        1 UNL1     0.0317
     87 H         5.025895   1.352521   -3.21887 H        1 UNL1     0.0317
     88 H         7.288174   1.14226   -7.334517 H        1 UNL1     0.0429
     89 H         6.963831   -0.366822   -6.477949 H        1 UNL1     0.0429
     90 H         4.460776   0.823909   -7.467987 H        1 UNL1     0.0308
     91 H         6.723339   0.49744   -9.510213 H        1 UNL1     0.0233
     92 H         4.999469   0.415714   -9.954161 H        1 UNL1     0.0233
     93 H         5.672762   1.893141   -9.299569 H        1 UNL1     0.0233
     94 H         4.416869   -1.422897   -8.696208 H        1 UNL1     0.0233
     95 H         5.923518   -1.777523   -7.836801 H        1 UNL1     0.0233
     96 H         4.434464   -1.449242   -6.920863 H        1 UNL1     0.0233
     97 H         3.803044   10.591881   0.00238 H        1 UNL1     0.0280
     98 H         5.422066   11.225853   -0.116089 H        1 UNL1     0.0280
     99 H         4.345404   11.269933   -1.54388 H        1 UNL1     0.0280
     100 H         6.410108   10.92959   -2.771201 H        1 UNL1     0.2922
     101 H         4.654729   1.044148   2.504472 H        1 UNL1     0.0236
     102 H         6.056901   2.184132   2.524805 H        1 UNL1     0.0236
     103 H         6.228362   0.550023   1.962856 H        1 UNL1     0.0236
     104 H         4.271411   -0.526739   1.317305 H        1 UNL1     0.2098
     105 H         0.73539   1.261054   -0.937941 H        1 UNL1     0.0234
     106 H         1.298698   -0.433341   -0.99091 H        1 UNL1     0.0234
     107 H         0.0   -0.0   0.0 H        1 UNL1     0.0234
     108 H         1.16921   3.208003   1.768551 H        1 UNL1     0.2098
     109 H         1.014682   3.054975   -0.807994 H        1 UNL1     0.0234
     110 H         -0.211055   2.299864   -1.875785 H        1 UNL1     0.0234
     111 H         -0.022365   4.017981   -1.839548 H        1 UNL1     0.0234
     112 H         -3.587272   -1.739993   1.267691 H        1 UNL1     0.0342
     113 H         -3.454735   -0.084273   1.959978 H        1 UNL1     0.0342
     114 H         -4.448383   -0.377652   0.530096 H        1 UNL1     0.0342
     115 H         -2.727578   1.881586   3.258345 H        1 UNL1     0.0234
     116 H         -1.278321   1.692346   4.25063 H        1 UNL1     0.0234
     117 H         -1.612284   3.164646   3.31551 H        1 UNL1     0.0234
     118 H         0.644671   7.279272   -0.652985 H        1 UNL1     0.0309
     119 H         1.84689   8.104714   -1.692877 H        1 UNL1     0.0309
     120 H         1.584942   6.376913   -1.78367 H        1 UNL1     0.0309
     121 H         -0.904472   5.308884   4.030485 H        1 UNL1     0.0524
     122 H         -0.809766   6.366438   2.61646 H        1 UNL1     0.0524
     123 H         -2.35483   5.580283   3.026925 H        1 UNL1     0.0524
@<TRIPOS>BOND
     1     1     2    1
     2     1    42    1
     3     2     3    2
     4     3     4    1
     5     4     5    2
     6     5     7    1
     7     6    75    1
     8     6    76    1
     9     6    77    1
    10     7     9   am
    11     9    10    1
    12    10    11    2
    13    10    43    1
    14    11    14    1
    15    11    15    1
    16    12    13   ar
    17    12    27   ar
    18    12    43    1
    19    13    14    1
    20    13    30   ar
    21    14    17    2
    22    15    16    1
    23    16    17    1
    24    16    18    1
    25    16    22    1
    26    18    19    1
    27    19    20    1
    28    20    21    1
    29    21    22    1
    30    23    24    1
    31    23    88    1
    32    23    89    1
    33    24    25    1
    34    24    26    1
    35    24    90    1
    36    25    91    1
    37    25    92    1
    38    25    93    1
    39    26    94    1
    40    26    95    1
    41    26    96    1
    42    27    28   ar
    43    28    29   ar
    44    29    30   ar
    45    29    31    1
    46    30    33    1
    47    31    32    1
    48    32    33    1
    49    32    35    1
    50    34    97    1
    51    34    98    1
    52    34    99    1
    53    35    61    1
    54    36    37    1
    55    36    60    1
    56    37    38    1
    57    38    39    1
    58    39    40    1
    59    40    41    1
    60    41    42    1
    61    45   100    1
    62    47   101    1
    63    47   102    1
    64    47   103    1
    65    48   104    1
    66    49   105    1
    67    49   106    1
    68    49   107    1
    69    50   108    1
    70    51    59    1
    71    52   109    1
    72    52   110    1
    73    52   111    1
    74    53    54    1
    75    54    55    2
    76    54    56    1
    77    56   112    1
    78    56   113    1
    79    56   114    1
    80    57   115    1
    81    57   116    1
    82    57   117    1
    83    58   118    1
    84    58   119    1
    85    58   120    1
    86    59   121    1
    87    59   122    1
    88    59   123    1
    89    60    61    2
    90     1    47    1
    91     1    62    1
    92     2    63    1
    93     3    64    1
    94     4    65    1
    95     5     6    1
    96     7     8    2
    97     9    78    1
    98    15    79    1
    99    18    80    1
   100    18    81    1
   101    19    82    1
   102    19    83    1
   103    20    23    1
   104    21    84    1
   105    21    85    1
   106    22    86    1
   107    22    87    1
   108    27    45    1
   109    28    34    1
   110    32    58    1
   111    33    46    2
   112    36    51    1
   113    36    66    1
   114    37    52    1
   115    37    67    1
   116    38    53    1
   117    38    68    1
   118    42    48    1
   119    42    72    1
   120    43    44    2
   121    60    73    1
   122    61    74    1
   123    39    69    1
   124    39    57    1
   125    40    70    1
   126    40    50    1
   127    41    71    1
   128    41    49    1
