@<TRIPOS>MOLECULE
*****
 123 128 0 0 0
SMALL
GASTEIGER

@<TRIPOS>ATOM
     1 C         5.075961   2.017083   -0.406535 C.3        1 UNL1     0.0009
     2 C         6.631527   2.457524   0.500803 C.2        1 UNL1     -0.0787
     3 C         7.492682   3.449595   1.109289 C.2        1 UNL1     -0.0649
     4 C         8.911549   3.192401   1.996432 C.2        1 UNL1     -0.0542
     5 C         9.81186   3.754071   2.935072 C.2        1 UNL1     0.0115
     6 C         10.200189   5.06317   3.675872 C.3        1 UNL1     -0.0348
     7 C         10.811268   2.781913   3.730736 C.2        1 UNL1     0.2441
     8 O         11.993936   2.662387   3.441713 O.2        1 UNL1     -0.2702
     9 N         10.303122   2.276877   4.940231 N.am        1 UNL1     -0.2772
     10 C         9.606472   1.111112   4.718893 C.2        1 UNL1     0.1049
     11 C         8.353235   1.247778   4.325266 C.2        1 UNL1     0.0801
     12 C         9.764661   -1.107276   3.573875 C.ar        1 UNL1     0.0753
     13 C         8.485063   -0.815678   3.002727 C.ar        1 UNL1     0.0305
     14 C         7.68025   0.313032   3.464617 C.2        1 UNL1     0.0924
     15 N         7.569216   2.339248   4.30214 N.pl3        1 UNL1     -0.3170
     16 C         6.239672   1.917823   3.948631 C.3        1 UNL1     0.1275
     17 N         6.445336   0.67066   3.124005 N.2        1 UNL1     -0.2557
     18 C         5.551524   1.467193   5.233578 C.3        1 UNL1     0.0016
     19 C         5.60244   2.607314   6.238128 C.3        1 UNL1     0.0026
     20 N         4.933345   3.766623   5.664244 N.3        1 UNL1     -0.3018
     21 C         5.486245   4.23725   4.39256 C.3        1 UNL1     0.0026
     22 C         5.420993   3.077626   3.397115 C.3        1 UNL1     0.0016
     23 C         4.662701   4.80247   6.641186 C.3        1 UNL1     0.0012
     24 C         3.560073   4.352089   7.612333 C.3        1 UNL1     -0.0339
     25 C         4.153391   3.749723   8.896539 C.3        1 UNL1     -0.0615
     26 C         2.629034   5.5126   7.917555 C.3        1 UNL1     -0.0615
     27 C         10.471528   -2.252335   3.214298 C.ar        1 UNL1     0.1347
     28 C         9.985146   -3.196375   2.327578 C.ar        1 UNL1     0.0342
     29 C         8.745573   -2.863825   1.741034 C.ar        1 UNL1     0.1435
     30 C         8.042756   -1.70249   2.064408 C.ar        1 UNL1     0.0774
     31 O         8.088675   -3.732259   0.941464 O.3        1 UNL1     -0.4436
     32 C         6.730538   -3.267145   0.939356 C.3        1 UNL1     0.3143
     33 C         6.814104   -1.798773   1.304204 C.2        1 UNL1     0.2504
     34 C         10.566746   -4.561521   2.086297 C.3        1 UNL1     -0.0327
     35 O         6.25912   -3.335051   -0.41209 O.2        1 UNL1     -0.4528
     36 C         2.523521   -3.967361   -0.180628 C.3        1 UNL1     0.0854
     37 C         1.412685   -3.118433   0.549362 C.3        1 UNL1     0.0236
     38 C         0.18824   -2.664565   -0.381488 C.3        1 UNL1     0.1131
     39 C         0.475248   -1.949368   -1.762933 C.3        1 UNL1     0.0200
     40 C         1.638151   -0.75851   -1.872249 C.3        1 UNL1     0.0661
     41 C         1.785698   0.583519   -0.845215 C.3        1 UNL1     0.0091
     42 C         3.275447   1.498024   -0.288682 C.3        1 UNL1     0.0661
     43 C         10.274051   -0.195996   4.628555 C.2        1 UNL1     0.2131
     44 O         11.114797   -0.518547   5.448216 O.2        1 UNL1     -0.2851
     45 O         11.730107   -2.438503   3.782417 O.3        1 UNL1     -0.5056
     46 O         6.05017   -0.905513   1.013784 O.2        1 UNL1     -0.2836
     47 C         5.189149   2.424555   -1.900234 C.3        1 UNL1     -0.0566
     48 O         2.699842   2.835214   -0.571028 O.3        1 UNL1     -0.3909
     49 C         0.923053   0.359996   0.376823 C.3        1 UNL1     -0.0577
     50 O         2.911084   -1.322026   -2.116822 O.3        1 UNL1     -0.3910
     51 O         2.396761   -4.073901   -1.580632 O.3        1 UNL1     -0.3753
     52 C         2.022133   -2.176835   1.638819 C.3        1 UNL1     -0.0564
     53 O         -1.002933   -2.175333   0.389281 O.3        1 UNL1     -0.4608
     54 C         -2.00298   -1.383089   -0.110904 C.2        1 UNL1     0.3042
     55 O         -2.247134   -0.213625   0.183344 O.2        1 UNL1     -0.2512
     56 C         -2.826495   -2.053299   -1.173616 C.3        1 UNL1     0.0332
     57 C         0.448731   -3.071979   -2.901887 C.3        1 UNL1     -0.0567
     58 C         6.007328   -4.023692   2.077835 C.3        1 UNL1     0.0210
     59 C         2.942139   -5.266534   -2.142821 C.3        1 UNL1     0.0372
     60 C         3.922679   -3.539584   0.092366 C.2        1 UNL1     -0.0208
     61 C         4.952781   -3.371348   -0.737894 C.2        1 UNL1     0.0882
     62 H         5.363612   0.960431   -0.347744 H        1 UNL1     0.0365
     63 H         7.124155   1.483948   0.544805 H        1 UNL1     0.0576
     64 H         7.193807   4.49741   1.185874 H        1 UNL1     0.0615
     65 H         9.162843   2.14865   1.789266 H        1 UNL1     0.0622
     66 H         2.427332   -4.974781   0.248207 H        1 UNL1     0.0645
     67 H         0.920572   -3.842494   1.22176 H        1 UNL1     0.0362
     68 H         -0.219611   -3.652707   -0.6437 H        1 UNL1     0.0741
     69 H         -0.421593   -1.434951   -2.081459 H        1 UNL1     0.0359
     70 H         1.349567   -0.29812   -2.836521 H        1 UNL1     0.0600
     71 H         1.180784   1.323157   -1.405548 H        1 UNL1     0.0348
     72 H         3.577514   0.946734   -1.190984 H        1 UNL1     0.0602
     73 H         4.072803   -3.485324   1.142017 H        1 UNL1     0.0628
     74 H         4.871899   -3.353914   -1.825272 H        1 UNL1     0.1022
     75 H         9.523278   5.899053   3.37566 H        1 UNL1     0.0279
     76 H         10.098035   5.056399   4.758732 H        1 UNL1     0.0279
     77 H         11.179463   5.454272   3.363201 H        1 UNL1     0.0279
     78 H         9.655003   2.948713   5.34601 H        1 UNL1     0.1553
     79 H         7.752639   3.168208   4.837037 H        1 UNL1     0.1484
     80 H         4.517869   1.181301   5.004252 H        1 UNL1     0.0317
     81 H         6.038475   0.577432   5.646924 H        1 UNL1     0.0317
     82 H         6.635767   2.849492   6.527087 H        1 UNL1     0.0428
     83 H         5.107963   2.264008   7.14735 H        1 UNL1     0.0428
     84 H         4.917435   5.0575   3.943721 H        1 UNL1     0.0428
     85 H         6.497658   4.649089   4.514 H        1 UNL1     0.0428
     86 H         5.70713   3.493552   2.448896 H        1 UNL1     0.0317
     87 H         4.377785   2.778204   3.238497 H        1 UNL1     0.0317
     88 H         5.582092   4.980007   7.214332 H        1 UNL1     0.0429
     89 H         4.398921   5.750355   6.15466 H        1 UNL1     0.0429
     90 H         2.940007   3.591121   7.123806 H        1 UNL1     0.0308
     91 H         4.809761   4.462975   9.404035 H        1 UNL1     0.0233
     92 H         3.35973   3.442498   9.581612 H        1 UNL1     0.0233
     93 H         4.751453   2.851853   8.699087 H        1 UNL1     0.0233
     94 H         1.962196   5.253751   8.747109 H        1 UNL1     0.0233
     95 H         3.210495   6.390201   8.213667 H        1 UNL1     0.0233
     96 H         2.016311   5.771576   7.049528 H        1 UNL1     0.0233
     97 H         9.983104   -5.132315   1.370205 H        1 UNL1     0.0280
     98 H         11.582939   -4.511424   1.673866 H        1 UNL1     0.0280
     99 H         10.595735   -5.123145   3.034365 H        1 UNL1     0.0280
     100 H         12.322251   -1.716149   3.667562 H        1 UNL1     0.2922
     101 H         4.287503   2.123019   -2.432931 H        1 UNL1     0.0236
     102 H         6.092424   2.048882   -2.379763 H        1 UNL1     0.0236
     103 H         5.237225   3.518827   -2.02849 H        1 UNL1     0.0236
     104 H         2.991605   3.099022   -1.465595 H        1 UNL1     0.2098
     105 H         1.310945   -0.381393   1.070864 H        1 UNL1     0.0234
     106 H         0.645711   1.268745   0.910849 H        1 UNL1     0.0234
     107 H         -0.0   0.0   0.0 H        1 UNL1     0.0234
     108 H         3.143727   -1.862438   -1.337335 H        1 UNL1     0.2098
     109 H         2.746663   -1.466532   1.216636 H        1 UNL1     0.0234
     110 H         1.263065   -1.630554   2.209026 H        1 UNL1     0.0234
     111 H         2.571734   -2.743633   2.402118 H        1 UNL1     0.0234
     112 H         -3.60023   -1.367785   -1.532437 H        1 UNL1     0.0342
     113 H         -2.21432   -2.417205   -1.997422 H        1 UNL1     0.0342
     114 H         -3.327871   -2.920871   -0.722944 H        1 UNL1     0.0342
     115 H         -0.526877   -3.574245   -2.957632 H        1 UNL1     0.0234
     116 H         0.682557   -2.697064   -3.900292 H        1 UNL1     0.0234
     117 H         1.11635   -3.925728   -2.693702 H        1 UNL1     0.0234
     118 H         5.67079   -5.026348   1.760932 H        1 UNL1     0.0309
     119 H         6.614545   -4.119389   2.983557 H        1 UNL1     0.0309
     120 H         5.078557   -3.531261   2.386059 H        1 UNL1     0.0309
     121 H         4.011275   -5.271261   -1.932385 H        1 UNL1     0.0524
     122 H         2.511179   -6.176314   -1.692697 H        1 UNL1     0.0524
     123 H         2.77112   -5.288814   -3.215365 H        1 UNL1     0.0524
@<TRIPOS>BOND
     1     1     2    1
     2     1    42    1
     3     2     3    2
     4     3     4    1
     5     4     5    2
     6     5     7    1
     7     6    75    1
     8     6    76    1
     9     6    77    1
    10     7     9   am
    11     9    10    1
    12    10    11    2
    13    10    43    1
    14    11    14    1
    15    11    15    1
    16    12    13   ar
    17    12    27   ar
    18    12    43    1
    19    13    14    1
    20    13    30   ar
    21    14    17    2
    22    15    16    1
    23    16    17    1
    24    16    18    1
    25    16    22    1
    26    18    19    1
    27    19    20    1
    28    20    21    1
    29    21    22    1
    30    23    24    1
    31    23    88    1
    32    23    89    1
    33    24    25    1
    34    24    26    1
    35    24    90    1
    36    25    91    1
    37    25    92    1
    38    25    93    1
    39    26    94    1
    40    26    95    1
    41    26    96    1
    42    27    28   ar
    43    28    29   ar
    44    29    30   ar
    45    29    31    1
    46    30    33    1
    47    31    32    1
    48    32    33    1
    49    32    35    1
    50    34    97    1
    51    34    98    1
    52    34    99    1
    53    35    61    1
    54    36    37    1
    55    36    60    1
    56    37    38    1
    57    38    39    1
    58    39    40    1
    59    40    41    1
    60    41    42    1
    61    45   100    1
    62    47   101    1
    63    47   102    1
    64    47   103    1
    65    48   104    1
    66    49   105    1
    67    49   106    1
    68    49   107    1
    69    50   108    1
    70    51    59    1
    71    52   109    1
    72    52   110    1
    73    52   111    1
    74    53    54    1
    75    54    55    2
    76    54    56    1
    77    56   112    1
    78    56   113    1
    79    56   114    1
    80    57   115    1
    81    57   116    1
    82    57   117    1
    83    58   118    1
    84    58   119    1
    85    58   120    1
    86    59   121    1
    87    59   122    1
    88    59   123    1
    89    60    61    2
    90     1    47    1
    91     1    62    1
    92     2    63    1
    93     3    64    1
    94     4    65    1
    95     5     6    1
    96     7     8    2
    97     9    78    1
    98    15    79    1
    99    18    80    1
   100    18    81    1
   101    19    82    1
   102    19    83    1
   103    20    23    1
   104    21    84    1
   105    21    85    1
   106    22    86    1
   107    22    87    1
   108    27    45    1
   109    28    34    1
   110    32    58    1
   111    33    46    2
   112    36    51    1
   113    36    66    1
   114    37    52    1
   115    37    67    1
   116    38    53    1
   117    38    68    1
   118    42    48    1
   119    42    72    1
   120    43    44    2
   121    60    73    1
   122    61    74    1
   123    39    69    1
   124    39    57    1
   125    40    70    1
   126    40    50    1
   127    41    71    1
   128    41    49    1
