@<TRIPOS>MOLECULE
*****
 123 128 0 0 0
SMALL
GASTEIGER

@<TRIPOS>ATOM
     1 C         0.542614   1.258449   -5.28141 C.3        1 UNL1     0.0009
     2 C         0.038908   2.446762   -6.612285 C.2        1 UNL1     -0.0787
     3 C         -0.72752   2.74785   -7.803075 C.2        1 UNL1     -0.0649
     4 C         -0.87857   4.236868   -8.594508 C.2        1 UNL1     -0.0542
     5 C         -1.662451   4.998237   -9.496132 C.2        1 UNL1     0.0115
     6 C         -2.84162   4.927649   -10.505042 C.3        1 UNL1     -0.0348
     7 C         -1.477151   6.592409   -9.53172 C.2        1 UNL1     0.2441
     8 O         -0.841209   7.169101   -10.40323 O.2        1 UNL1     -0.2702
     9 N         -2.308185   7.301836   -8.647272 N.am        1 UNL1     -0.2772
     10 C         -1.706388   7.423073   -7.415825 C.2        1 UNL1     0.1049
     11 C         -1.83241   6.390409   -6.602224 C.2        1 UNL1     0.0801
     12 C         0.441326   8.078539   -6.313545 C.ar        1 UNL1     0.0753
     13 C         0.364413   6.83825   -5.60335 C.ar        1 UNL1     0.0305
     14 C         -0.842997   6.015707   -5.628551 C.2        1 UNL1     0.0924
     15 N         -2.630296   5.312499   -6.691747 N.pl3        1 UNL1     -0.3170
     16 C         -2.509099   4.572876   -5.463528 C.3        1 UNL1     0.1275
     17 N         -1.124809   4.901118   -4.959821 N.2        1 UNL1     -0.2557
     18 C         -3.48133   5.192907   -4.464513 C.3        1 UNL1     0.0016
     19 C         -4.875694   5.179486   -5.070448 C.3        1 UNL1     0.0026
     20 N         -5.241473   3.802408   -5.371929 N.3        1 UNL1     -0.3018
     21 C         -4.329737   3.101115   -6.278183 C.3        1 UNL1     0.0026
     22 C         -2.936208   3.122632   -5.6477 C.3        1 UNL1     0.0016
     23 C         -6.65102   3.645825   -5.670765 C.3        1 UNL1     0.0012
     24 C         -6.995146   4.315213   -7.010636 C.3        1 UNL1     -0.0339
     25 C         -6.648659   3.404199   -8.199778 C.3        1 UNL1     -0.0615
     26 C         -8.457593   4.724767   -7.027741 C.3        1 UNL1     -0.0615
     27 C         1.548272   8.91463   -6.188085 C.ar        1 UNL1     0.1347
     28 C         2.617424   8.637159   -5.355034 C.ar        1 UNL1     0.0342
     29 C         2.542198   7.387801   -4.703413 C.ar        1 UNL1     0.1435
     30 C         1.456265   6.523396   -4.847546 C.ar        1 UNL1     0.0774
     31 O         3.452221   7.021457   -3.77462 O.3        1 UNL1     -0.4436
     32 C         2.809102   5.976731   -3.029087 C.3        1 UNL1     0.3143
     33 C         1.752817   5.417756   -3.960764 C.2        1 UNL1     0.2504
     34 C         3.713254   9.594878   -4.978163 C.3        1 UNL1     -0.0327
     35 O         3.777332   4.94007   -2.826312 O.2        1 UNL1     -0.4528
     36 C         2.852078   3.280195   0.459537 C.3        1 UNL1     0.0854
     37 C         1.49491   2.597664   0.88353 C.3        1 UNL1     0.0236
     38 C         1.630801   1.084326   1.396449 C.3        1 UNL1     0.1131
     39 C         2.420258   0.027375   0.52359 C.3        1 UNL1     0.0200
     40 C         2.201526   -0.03582   -1.128863 C.3        1 UNL1     0.0661
     41 C         0.708495   -0.093504   -1.932069 C.3        1 UNL1     0.0091
     42 C         0.207279   0.582394   -3.562206 C.3        1 UNL1     0.0661
     43 C         -0.736253   8.487466   -7.118744 C.2        1 UNL1     0.2131
     44 O         -0.966366   9.639973   -7.437356 O.2        1 UNL1     -0.2851
     45 O         1.564609   10.081848   -6.948855 O.3        1 UNL1     -0.5056
     46 O         1.278975   4.303787   -3.980777 O.2        1 UNL1     -0.2836
     47 C         1.536398   0.207315   -5.844874 C.3        1 UNL1     -0.0566
     48 O         -0.457803   -0.667374   -4.003636 O.3        1 UNL1     -0.3909
     49 C         -0.387125   0.261169   -0.951601 C.3        1 UNL1     -0.0577
     50 O         3.068018   0.868429   -1.784034 O.3        1 UNL1     -0.3910
     51 O         3.97949   2.434927   0.416001 O.3        1 UNL1     -0.3753
     52 C         0.302504   3.067895   -0.012014 C.3        1 UNL1     -0.0564
     53 O         0.412137   0.581581   2.113687 O.3        1 UNL1     -0.4608
     54 C         -0.096614   -0.687647   2.02334 C.2        1 UNL1     0.3042
     55 O         -0.576753   -1.366151   2.930498 O.2        1 UNL1     -0.2512
     56 C         -0.091675   -1.239491   0.626143 C.3        1 UNL1     0.0332
     57 C         3.918498   -0.034847   1.079989 C.3        1 UNL1     -0.0567
     58 C         2.107511   6.661176   -1.832912 C.3        1 UNL1     0.0210
     59 C         4.828538   2.508759   1.560349 C.3        1 UNL1     0.0372
     60 C         2.811291   4.008511   -0.837788 C.2        1 UNL1     -0.0208
     61 C         3.675601   4.014174   -1.853505 C.2        1 UNL1     0.0882
     62 H         1.149571   2.052037   -4.829156 H        1 UNL1     0.0365
     63 H         0.672187   3.303041   -6.371012 H        1 UNL1     0.0576
     64 H         -1.43998   2.033207   -8.221161 H        1 UNL1     0.0615
     65 H         -0.078878   4.844213   -8.161947 H        1 UNL1     0.0622
     66 H         3.028638   4.044927   1.228991 H        1 UNL1     0.0645
     67 H         1.211253   3.120034   1.813706 H        1 UNL1     0.0362
     68 H         2.252846   1.247991   2.289643 H        1 UNL1     0.0741
     69 H         2.134453   -0.967289   0.838814 H        1 UNL1     0.0359
     70 H         2.631733   -1.03349   -1.34014 H        1 UNL1     0.0600
     71 H         0.577008   -1.19006   -2.01712 H        1 UNL1     0.0348
     72 H         1.305544   0.529539   -3.580534 H        1 UNL1     0.0602
     73 H         1.995811   4.688362   -0.831158 H        1 UNL1     0.0628
     74 H         4.502311   3.311565   -1.963642 H        1 UNL1     0.1022
     75 H         -3.765924   5.367992   -10.059179 H        1 UNL1     0.0279
     76 H         -2.729195   5.499466   -11.42344 H        1 UNL1     0.0279
     77 H         -3.167921   3.896776   -10.706361 H        1 UNL1     0.0279
     78 H         -3.179337   6.792592   -8.513697 H        1 UNL1     0.1553
     79 H         -3.447115   5.270908   -7.273133 H        1 UNL1     0.1484
     80 H         -3.445601   4.621509   -3.529102 H        1 UNL1     0.0317
     81 H         -3.186878   6.218384   -4.216834 H        1 UNL1     0.0317
     82 H         -4.935077   5.810664   -5.969337 H        1 UNL1     0.0428
     83 H         -5.552644   5.627584   -4.342439 H        1 UNL1     0.0428
     84 H         -4.582376   2.046387   -6.424924 H        1 UNL1     0.0428
     85 H         -4.354575   3.52491   -7.291641 H        1 UNL1     0.0428
     86 H         -2.328028   2.490575   -6.267869 H        1 UNL1     0.0317
     87 H         -2.951844   2.595343   -4.686025 H        1 UNL1     0.0317
     88 H         -6.865903   2.572202   -5.751092 H        1 UNL1     0.0429
     89 H         -7.276777   4.039229   -4.859325 H        1 UNL1     0.0429
     90 H         -6.422467   5.245459   -7.104954 H        1 UNL1     0.0308
     91 H         -6.956132   2.371071   -8.012135 H        1 UNL1     0.0233
     92 H         -7.130063   3.761387   -9.113165 H        1 UNL1     0.0233
     93 H         -5.572409   3.382672   -8.409678 H        1 UNL1     0.0233
     94 H         -8.807204   4.83393   -8.060064 H        1 UNL1     0.0233
     95 H         -9.066739   3.955375   -6.545102 H        1 UNL1     0.0233
     96 H         -8.61208   5.674654   -6.508303 H        1 UNL1     0.0233
     97 H         3.363505   10.622471   -4.947197 H        1 UNL1     0.0280
     98 H         4.120511   9.385835   -3.980316 H        1 UNL1     0.0280
     99 H         4.52996   9.529898   -5.715634 H        1 UNL1     0.0280
     100 H         1.050411   10.043317   -7.73609 H        1 UNL1     0.2922
     101 H         2.534299   0.395835   -5.449513 H        1 UNL1     0.0236
     102 H         1.531183   0.1526   -6.932974 H        1 UNL1     0.0236
     103 H         1.291558   -0.814805   -5.510933 H        1 UNL1     0.0236
     104 H         -0.461694   -1.283268   -3.244933 H        1 UNL1     0.2098
     105 H         -0.643998   1.31723   -0.927879 H        1 UNL1     0.0234
     106 H         -1.288791   -0.3451   -1.037413 H        1 UNL1     0.0234
     107 H         0.0   0.0   0.0 H        1 UNL1     0.0234
     108 H         3.937823   0.431375   -1.862722 H        1 UNL1     0.2098
     109 H         -0.670608   2.905621   0.472169 H        1 UNL1     0.0234
     110 H         0.385973   4.114151   -0.325262 H        1 UNL1     0.0234
     111 H         0.261189   2.509641   -0.956785 H        1 UNL1     0.0234
     112 H         0.9043   -1.61985   0.379757 H        1 UNL1     0.0342
     113 H         -0.849282   -2.009271   0.487172 H        1 UNL1     0.0342
     114 H         -0.319883   -0.418737   -0.067722 H        1 UNL1     0.0342
     115 H         4.655924   0.166657   0.29082 H        1 UNL1     0.0234
     116 H         4.116855   0.658676   1.899579 H        1 UNL1     0.0234
     117 H         4.225258   -1.043676   1.405725 H        1 UNL1     0.0234
     118 H         1.102906   7.033741   -2.099315 H        1 UNL1     0.0309
     119 H         2.027941   6.013888   -0.953771 H        1 UNL1     0.0309
     120 H         2.6311   7.563538   -1.498693 H        1 UNL1     0.0309
     121 H         4.401012   1.866777   2.330049 H        1 UNL1     0.0524
     122 H         5.846965   2.141857   1.350044 H        1 UNL1     0.0524
     123 H         4.889486   3.532814   1.917686 H        1 UNL1     0.0524
@<TRIPOS>BOND
     1     1     2    1
     2     1    42    1
     3     2     3    2
     4     3     4    1
     5     4     5    2
     6     5     7    1
     7     6    75    1
     8     6    76    1
     9     6    77    1
    10     7     9   am
    11     9    10    1
    12    10    11    2
    13    10    43    1
    14    11    14    1
    15    11    15    1
    16    12    13   ar
    17    12    27   ar
    18    12    43    1
    19    13    14    1
    20    13    30   ar
    21    14    17    2
    22    15    16    1
    23    16    17    1
    24    16    18    1
    25    16    22    1
    26    18    19    1
    27    19    20    1
    28    20    21    1
    29    21    22    1
    30    23    24    1
    31    23    88    1
    32    23    89    1
    33    24    25    1
    34    24    26    1
    35    24    90    1
    36    25    91    1
    37    25    92    1
    38    25    93    1
    39    26    94    1
    40    26    95    1
    41    26    96    1
    42    27    28   ar
    43    28    29   ar
    44    29    30   ar
    45    29    31    1
    46    30    33    1
    47    31    32    1
    48    32    33    1
    49    32    35    1
    50    34    97    1
    51    34    98    1
    52    34    99    1
    53    35    61    1
    54    36    37    1
    55    36    60    1
    56    37    38    1
    57    38    39    1
    58    39    40    1
    59    40    41    1
    60    41    42    1
    61    45   100    1
    62    47   101    1
    63    47   102    1
    64    47   103    1
    65    48   104    1
    66    49   105    1
    67    49   106    1
    68    49   107    1
    69    50   108    1
    70    51    59    1
    71    52   109    1
    72    52   110    1
    73    52   111    1
    74    53    54    1
    75    54    55    2
    76    54    56    1
    77    56   112    1
    78    56   113    1
    79    56   114    1
    80    57   115    1
    81    57   116    1
    82    57   117    1
    83    58   118    1
    84    58   119    1
    85    58   120    1
    86    59   121    1
    87    59   122    1
    88    59   123    1
    89    60    61    2
    90     1    47    1
    91     1    62    1
    92     2    63    1
    93     3    64    1
    94     4    65    1
    95     5     6    1
    96     7     8    2
    97     9    78    1
    98    15    79    1
    99    18    80    1
   100    18    81    1
   101    19    82    1
   102    19    83    1
   103    20    23    1
   104    21    84    1
   105    21    85    1
   106    22    86    1
   107    22    87    1
   108    27    45    1
   109    28    34    1
   110    32    58    1
   111    33    46    2
   112    36    51    1
   113    36    66    1
   114    37    52    1
   115    37    67    1
   116    38    53    1
   117    38    68    1
   118    42    48    1
   119    42    72    1
   120    43    44    2
   121    60    73    1
   122    61    74    1
   123    39    69    1
   124    39    57    1
   125    40    70    1
   126    40    50    1
   127    41    71    1
   128    41    49    1
