@<TRIPOS>MOLECULE
*****
 123 128 0 0 0
SMALL
GASTEIGER

@<TRIPOS>ATOM
     1 C         5.166126   1.760898   0.457875 C.3        1 UNL1     0.0009
     2 C         6.595584   2.569842   -0.401949 C.2        1 UNL1     -0.0787
     3 C         7.873474   2.474236   -1.075673 C.2        1 UNL1     -0.0649
     4 C         8.743316   3.710962   -1.837409 C.2        1 UNL1     -0.0542
     5 C         9.756746   4.00544   -2.782565 C.2        1 UNL1     0.0115
     6 C         10.880912   3.382118   -3.654942 C.3        1 UNL1     -0.0348
     7 C         9.844863   5.488584   -3.390436 C.2        1 UNL1     0.2441
     8 O         10.669216   6.312322   -3.018381 O.2        1 UNL1     -0.2702
     9 N         9.086823   5.6932   -4.556479 N.am        1 UNL1     -0.2772
     10 C         7.805221   6.077108   -4.234867 C.2        1 UNL1     0.1049
     11 C         6.96352   5.103916   -3.937111 C.2        1 UNL1     0.0801
     12 C         6.512039   7.681538   -2.816834 C.ar        1 UNL1     0.0753
     13 C         5.758401   6.552127   -2.363989 C.ar        1 UNL1     0.0305
     14 C         5.87427   5.24635   -3.009413 C.2        1 UNL1     0.0924
     15 N         7.088189   3.775137   -4.096271 N.pl3        1 UNL1     -0.3170
     16 C         5.821709   3.173227   -3.773801 C.3        1 UNL1     0.1275
     17 N         5.189291   4.127528   -2.790399 N.2        1 UNL1     -0.2557
     18 C         4.960799   3.229661   -5.032114 C.3        1 UNL1     0.0016
     19 C         5.710138   2.546692   -6.165091 C.3        1 UNL1     0.0026
     20 N         5.985864   1.169422   -5.780215 N.3        1 UNL1     -0.3018
     21 C         6.757364   1.011447   -4.54563 C.3        1 UNL1     0.0026
     22 C         5.984099   1.700784   -3.420122 C.3        1 UNL1     0.0016
     23 C         6.425265   0.350307   -6.89225 C.3        1 UNL1     0.0012
     24 C         5.264243   0.097653   -7.866905 C.3        1 UNL1     -0.0339
     25 C         5.349538   1.019807   -9.094265 C.3        1 UNL1     -0.0615
     26 C         5.231138   -1.366574   -8.269052 C.3        1 UNL1     -0.0615
     27 C         6.307866   8.949051   -2.276609 C.ar        1 UNL1     0.1347
     28 C         5.354247   9.216918   -1.310737 C.ar        1 UNL1     0.0342
     29 C         4.658201   8.081112   -0.845304 C.ar        1 UNL1     0.1435
     30 C         4.877404   6.799318   -1.351441 C.ar        1 UNL1     0.0774
     31 O         3.62234   8.192754   0.014658 O.3        1 UNL1     -0.4436
     32 C         2.902614   6.958206   -0.122309 C.3        1 UNL1     0.3143
     33 C         3.914821   5.967138   -0.660299 C.2        1 UNL1     0.2504
     34 C         4.907054   10.582233   -0.86798 C.3        1 UNL1     -0.0327
     35 O         2.55127   6.521396   1.196405 O.2        1 UNL1     -0.4528
     36 C         -0.689764   4.581565   0.821115 C.3        1 UNL1     0.0854
     37 C         -0.997817   3.319795   -0.073627 C.3        1 UNL1     0.0236
     38 C         -1.590504   2.057808   0.718745 C.3        1 UNL1     0.1131
     39 C         -0.855352   1.52925   2.015837 C.3        1 UNL1     0.0200
     40 C         0.806396   1.387535   2.046622 C.3        1 UNL1     0.0661
     41 C         1.760151   0.620267   0.872203 C.3        1 UNL1     0.0091
     42 C         3.463317   0.986428   0.297264 C.3        1 UNL1     0.0661
     43 C         7.45548   7.4754   -3.943638 C.2        1 UNL1     0.2131
     44 O         7.848769   8.373998   -4.665152 O.2        1 UNL1     -0.2851
     45 O         7.114852   9.985765   -2.740758 O.3        1 UNL1     -0.5056
     46 O         3.934396   4.763715   -0.528981 O.2        1 UNL1     -0.2836
     47 C         5.572521   1.333123   1.893783 C.3        1 UNL1     -0.0566
     48 O         3.915623   -0.423601   0.37698 O.3        1 UNL1     -0.3909
     49 C         0.918707   0.385082   -0.362364 C.3        1 UNL1     -0.0577
     50 O         1.40626   2.606986   2.434985 O.3        1 UNL1     -0.3910
     51 O         -0.804652   4.392375   2.213393 O.3        1 UNL1     -0.3753
     52 C         0.039725   3.16108   -1.232621 C.3        1 UNL1     -0.0564
     53 O         -2.196378   1.016949   -0.17672 O.3        1 UNL1     -0.4608
     54 C         -2.394494   -0.298221   0.15344 C.2        1 UNL1     0.3042
     55 O         -1.749055   -1.271123   -0.234772 O.2        1 UNL1     -0.2512
     56 C         -3.501889   -0.508758   1.146448 C.3        1 UNL1     0.0332
     57 C         -1.569954   2.197289   3.281239 C.3        1 UNL1     -0.0567
     58 C         1.820052   7.200232   -1.199811 C.3        1 UNL1     0.0210
     59 C         -1.115884   5.571071   2.954796 C.3        1 UNL1     0.0372
     60 C         0.636306   5.213562   0.581789 C.2        1 UNL1     -0.0208
     61 C         1.553701   5.651368   1.445189 C.2        1 UNL1     0.0882
     62 H         4.68851   2.744027   0.547607 H        1 UNL1     0.0365
     63 H         6.32759   3.623087   -0.29554 H        1 UNL1     0.0576
     64 H         8.331942   1.508314   -1.299076 H        1 UNL1     0.0615
     65 H         8.256331   4.625434   -1.488024 H        1 UNL1     0.0622
     66 H         -1.438064   5.326213   0.515187 H        1 UNL1     0.0645
     67 H         -1.867907   3.626838   -0.67962 H        1 UNL1     0.0362
     68 H         -2.536338   2.492712   1.076208 H        1 UNL1     0.0741
     69 H         -1.183318   0.517505   2.213875 H        1 UNL1     0.0359
     70 H         0.925237   0.727955   2.927469 H        1 UNL1     0.0600
     71 H         1.808764   -0.400557   1.299417 H        1 UNL1     0.0348
     72 H         3.362494   1.474937   1.27732 H        1 UNL1     0.0602
     73 H         0.747213   5.410501   -0.455594 H        1 UNL1     0.0628
     74 H         1.543383   5.441263   2.51523 H        1 UNL1     0.1022
     75 H         10.87732   2.26925   -3.5625 H        1 UNL1     0.0279
     76 H         10.798341   3.528182   -4.729613 H        1 UNL1     0.0279
     77 H         11.888648   3.626848   -3.288504 H        1 UNL1     0.0279
     78 H         9.023508   4.822817   -5.080409 H        1 UNL1     0.1553
     79 H         7.750532   3.348323   -4.717612 H        1 UNL1     0.1484
     80 H         4.001888   2.736638   -4.831652 H        1 UNL1     0.0317
     81 H         4.730111   4.26574   -5.30225 H        1 UNL1     0.0317
     82 H         6.637999   3.079983   -6.419233 H        1 UNL1     0.0428
     83 H         5.07925   2.599904   -7.052897 H        1 UNL1     0.0428
     84 H         6.88202   -0.031053   -4.236654 H        1 UNL1     0.0428
     85 H         7.785935   1.381776   -4.656145 H        1 UNL1     0.0428
     86 H         6.506811   1.452114   -2.515177 H        1 UNL1     0.0317
     87 H         5.006559   1.220978   -3.288594 H        1 UNL1     0.0317
     88 H         7.216744   0.893626   -7.424847 H        1 UNL1     0.0429
     89 H         6.86223   -0.594276   -6.543539 H        1 UNL1     0.0429
     90 H         4.315132   0.288411   -7.35211 H        1 UNL1     0.0308
     91 H         6.301865   0.896838   -9.61872 H        1 UNL1     0.0233
     92 H         4.529657   0.817244   -9.787354 H        1 UNL1     0.0233
     93 H         5.268527   2.080226   -8.826339 H        1 UNL1     0.0233
     94 H         4.571088   -1.506434   -9.131959 H        1 UNL1     0.0233
     95 H         6.233423   -1.698545   -8.553976 H        1 UNL1     0.0233
     96 H         4.8696   -1.996805   -7.451697 H        1 UNL1     0.0233
     97 H         4.079361   10.532394   -0.166788 H        1 UNL1     0.0280
     98 H         5.705149   11.132066   -0.352243 H        1 UNL1     0.0280
     99 H         4.582641   11.166596   -1.744548 H        1 UNL1     0.0280
     100 H         6.645029   10.747905   -3.03064 H        1 UNL1     0.2922
     101 H         4.690859   1.002101   2.442193 H        1 UNL1     0.0236
     102 H         6.122746   2.104663   2.431334 H        1 UNL1     0.0236
     103 H         6.244812   0.458932   1.89081 H        1 UNL1     0.0236
     104 H         4.253108   -0.574406   1.281598 H        1 UNL1     0.2098
     105 H         0.700388   1.283098   -0.934829 H        1 UNL1     0.0234
     106 H         1.285756   -0.402465   -1.02037 H        1 UNL1     0.0234
     107 H         0.0   -0.0   0.0 H        1 UNL1     0.0234
     108 H         1.255675   3.247219   1.713047 H        1 UNL1     0.2098
     109 H         1.068613   3.062563   -0.859265 H        1 UNL1     0.0234
     110 H         -0.188374   2.32547   -1.903046 H        1 UNL1     0.0234
     111 H         0.045951   4.038315   -1.893202 H        1 UNL1     0.0234
     112 H         -3.593287   -1.573468   1.381787 H        1 UNL1     0.0342
     113 H         -3.358374   0.080392   2.050964 H        1 UNL1     0.0342
     114 H         -4.444007   -0.184055   0.68369 H        1 UNL1     0.0342
     115 H         -2.657276   2.040134   3.266377 H        1 UNL1     0.0234
     116 H         -1.199084   1.836072   4.242502 H        1 UNL1     0.0234
     117 H         -1.514006   3.299459   3.287007 H        1 UNL1     0.0234
     118 H         0.918632   7.681073   -0.781193 H        1 UNL1     0.0309
     119 H         2.181443   7.792469   -2.046484 H        1 UNL1     0.0309
     120 H         1.434245   6.267265   -1.625053 H        1 UNL1     0.0309
     121 H         -0.736678   5.433588   3.96705 H        1 UNL1     0.0524
     122 H         -0.629795   6.468511   2.537236 H        1 UNL1     0.0524
     123 H         -2.190409   5.729395   2.975339 H        1 UNL1     0.0524
@<TRIPOS>BOND
     1     1     2    1
     2     1    42    1
     3     2     3    2
     4     3     4    1
     5     4     5    2
     6     5     7    1
     7     6    75    1
     8     6    76    1
     9     6    77    1
    10     7     9   am
    11     9    10    1
    12    10    11    2
    13    10    43    1
    14    11    14    1
    15    11    15    1
    16    12    13   ar
    17    12    27   ar
    18    12    43    1
    19    13    14    1
    20    13    30   ar
    21    14    17    2
    22    15    16    1
    23    16    17    1
    24    16    18    1
    25    16    22    1
    26    18    19    1
    27    19    20    1
    28    20    21    1
    29    21    22    1
    30    23    24    1
    31    23    88    1
    32    23    89    1
    33    24    25    1
    34    24    26    1
    35    24    90    1
    36    25    91    1
    37    25    92    1
    38    25    93    1
    39    26    94    1
    40    26    95    1
    41    26    96    1
    42    27    28   ar
    43    28    29   ar
    44    29    30   ar
    45    29    31    1
    46    30    33    1
    47    31    32    1
    48    32    33    1
    49    32    35    1
    50    34    97    1
    51    34    98    1
    52    34    99    1
    53    35    61    1
    54    36    37    1
    55    36    60    1
    56    37    38    1
    57    38    39    1
    58    39    40    1
    59    40    41    1
    60    41    42    1
    61    45   100    1
    62    47   101    1
    63    47   102    1
    64    47   103    1
    65    48   104    1
    66    49   105    1
    67    49   106    1
    68    49   107    1
    69    50   108    1
    70    51    59    1
    71    52   109    1
    72    52   110    1
    73    52   111    1
    74    53    54    1
    75    54    55    2
    76    54    56    1
    77    56   112    1
    78    56   113    1
    79    56   114    1
    80    57   115    1
    81    57   116    1
    82    57   117    1
    83    58   118    1
    84    58   119    1
    85    58   120    1
    86    59   121    1
    87    59   122    1
    88    59   123    1
    89    60    61    2
    90     1    47    1
    91     1    62    1
    92     2    63    1
    93     3    64    1
    94     4    65    1
    95     5     6    1
    96     7     8    2
    97     9    78    1
    98    15    79    1
    99    18    80    1
   100    18    81    1
   101    19    82    1
   102    19    83    1
   103    20    23    1
   104    21    84    1
   105    21    85    1
   106    22    86    1
   107    22    87    1
   108    27    45    1
   109    28    34    1
   110    32    58    1
   111    33    46    2
   112    36    51    1
   113    36    66    1
   114    37    52    1
   115    37    67    1
   116    38    53    1
   117    38    68    1
   118    42    48    1
   119    42    72    1
   120    43    44    2
   121    60    73    1
   122    61    74    1
   123    39    69    1
   124    39    57    1
   125    40    70    1
   126    40    50    1
   127    41    71    1
   128    41    49    1
