@<TRIPOS>MOLECULE
*****
 123 128 0 0 0
SMALL
GASTEIGER

@<TRIPOS>ATOM
     1 C         4.056106   0.192259   1.440959 C.3        1 UNL1     0.0009
     2 C         4.687058   1.021027   2.974608 C.2        1 UNL1     -0.0787
     3 C         5.414277   2.098895   3.611319 C.2        1 UNL1     -0.0649
     4 C         5.569383   2.413543   5.267609 C.2        1 UNL1     -0.0542
     5 C         5.877779   3.398114   6.23848 C.2        1 UNL1     0.0115
     6 C         6.444037   4.830691   6.439472 C.3        1 UNL1     -0.0348
     7 C         5.425538   3.157414   7.759838 C.2        1 UNL1     0.2441
     8 O         6.198991   2.790961   8.633914 O.2        1 UNL1     -0.2702
     9 N         4.14593   3.644758   8.078037 N.am        1 UNL1     -0.2772
     10 C         3.189653   2.69115   7.81443 C.2        1 UNL1     0.1049
     11 C         2.776437   2.611745   6.562563 C.2        1 UNL1     0.0801
     12 C         2.634969   0.281184   8.190896 C.ar        1 UNL1     0.0753
     13 C         2.39906   0.196399   6.781723 C.ar        1 UNL1     0.0305
     14 C         2.335024   1.391442   5.943377 C.2        1 UNL1     0.0924
     15 N         2.980042   3.448911   5.530951 N.pl3        1 UNL1     -0.3170
     16 C         2.172908   2.994101   4.430072 C.3        1 UNL1     0.1275
     17 N         2.031525   1.508265   4.653739 N.2        1 UNL1     -0.2557
     18 C         0.778807   3.585046   4.617076 C.3        1 UNL1     0.0016
     19 C         0.90159   5.096763   4.723028 C.3        1 UNL1     0.0026
     20 N         1.526042   5.60165   3.508047 N.3        1 UNL1     -0.3018
     21 C         2.846726   5.043805   3.209767 C.3        1 UNL1     0.0026
     22 C         2.699077   3.525016   3.103112 C.3        1 UNL1     0.0016
     23 C         1.419108   7.040942   3.375208 C.3        1 UNL1     0.0012
     24 C         1.183679   7.692445   4.747022 C.3        1 UNL1     -0.0339
     25 C         0.108296   8.788779   4.671791 C.3        1 UNL1     -0.0615
     26 C         0.828881   6.630912   5.773689 C.3        1 UNL1     -0.0615
     27 C         2.574709   -0.849502   9.00209 C.ar        1 UNL1     0.1347
     28 C         2.249765   -2.107374   8.526467 C.ar        1 UNL1     0.0342
     29 C         2.069627   -2.175478   7.128585 C.ar        1 UNL1     0.1435
     30 C         2.162468   -1.057751   6.298352 C.ar        1 UNL1     0.0774
     31 O         1.641364   -3.306977   6.527495 O.3        1 UNL1     -0.4436
     32 C         1.136517   -2.873186   5.255557 C.3        1 UNL1     0.3143
     33 C         1.836548   -1.55798   4.979143 C.2        1 UNL1     0.2504
     34 C         1.920946   -3.309879   9.366682 C.3        1 UNL1     -0.0327
     35 O         1.599768   -3.807048   4.272423 O.2        1 UNL1     -0.4528
     36 C         -1.045379   -3.850318   1.550398 C.3        1 UNL1     0.0854
     37 C         -1.602343   -2.656385   0.683314 C.3        1 UNL1     0.0236
     38 C         -1.505648   -2.870553   -0.903043 C.3        1 UNL1     0.1131
     39 C         -0.131223   -3.305467   -1.554253 C.3        1 UNL1     0.0200
     40 C         1.296331   -2.590625   -1.071005 C.3        1 UNL1     0.0661
     41 C         1.580033   -0.92282   -0.946307 C.3        1 UNL1     0.0091
     42 C         2.651938   0.019018   0.206674 C.3        1 UNL1     0.0661
     43 C         2.857784   1.627495   8.774042 C.2        1 UNL1     0.2131
     44 O         2.681696   1.889091   9.950179 O.2        1 UNL1     -0.2851
     45 O         2.862112   -0.688225   10.35591 O.3        1 UNL1     -0.5056
     46 O         2.088421   -1.04854   3.910086 O.2        1 UNL1     -0.2836
     47 C         5.214684   -0.531617   0.703612 C.3        1 UNL1     -0.0566
     48 O         3.267452   0.845263   -0.859899 O.3        1 UNL1     -0.3909
     49 C         0.255029   -0.196317   -1.00997 C.3        1 UNL1     -0.0577
     50 O         1.835795   -3.257808   0.052191 O.3        1 UNL1     -0.3910
     51 O         -0.379366   -4.869541   0.839735 O.3        1 UNL1     -0.3753
     52 C         -1.324282   -1.271321   1.353559 C.3        1 UNL1     -0.0564
     53 O         -2.342902   -1.906262   -1.691379 O.3        1 UNL1     -0.4608
     54 C         -3.000714   -2.194143   -2.858571 C.2        1 UNL1     0.3042
     55 O         -4.212335   -2.337906   -3.017142 O.2        1 UNL1     -0.2512
     56 C         -2.095315   -2.27727   -4.054421 C.3        1 UNL1     0.0332
     57 C         -0.152837   -4.897318   -1.708263 C.3        1 UNL1     -0.0567
     58 C         -0.373228   -2.60283   5.453311 C.3        1 UNL1     0.0210
     59 C         -1.16733   -6.029396   0.575697 C.3        1 UNL1     0.0372
     60 C         -0.148528   -3.450392   2.668825 C.2        1 UNL1     -0.0208
     61 C         1.015883   -3.963139   3.068802 C.2        1 UNL1     0.0882
     62 H         3.56789   -0.560452   2.07166 H        1 UNL1     0.0365
     63 H         4.373545   0.304641   3.736821 H        1 UNL1     0.0576
     64 H         5.813408   2.937816   3.036851 H        1 UNL1     0.0615
     65 H         5.220078   1.4923   5.741717 H        1 UNL1     0.0622
     66 H         -1.936582   -4.288971   2.020916 H        1 UNL1     0.0645
     67 H         -2.693816   -2.694825   0.843842 H        1 UNL1     0.0362
     68 H         -2.168798   -3.742299   -1.011725 H        1 UNL1     0.0741
     69 H         -0.161588   -3.082733   -2.612495 H        1 UNL1     0.0359
     70 H         1.952593   -2.888314   -1.911101 H        1 UNL1     0.0600
     71 H         1.987479   -0.720028   -1.956169 H        1 UNL1     0.0348
     72 H         3.01827   -1.01759   0.230375 H        1 UNL1     0.0602
     73 H         -0.631304   -2.70882   3.255551 H        1 UNL1     0.0628
     74 H         1.601986   -4.68276   2.496206 H        1 UNL1     0.1022
     75 H         7.489808   4.896597   6.053398 H        1 UNL1     0.0279
     76 H         5.943653   5.630501   5.898188 H        1 UNL1     0.0279
     77 H         6.587771   5.086309   7.49952 H        1 UNL1     0.0279
     78 H         3.935987   4.456741   7.501248 H        1 UNL1     0.1553
     79 H         3.265135   4.405102   5.637511 H        1 UNL1     0.1484
     80 H         0.149731   3.292859   3.767572 H        1 UNL1     0.0317
     81 H         0.299819   3.181014   5.515397 H        1 UNL1     0.0317
     82 H         1.470724   5.397491   5.61497 H        1 UNL1     0.0428
     83 H         -0.103526   5.497574   4.857723 H        1 UNL1     0.0428
     84 H         3.258334   5.37867   2.252555 H        1 UNL1     0.0428
     85 H         3.59863   5.356398   3.947496 H        1 UNL1     0.0428
     86 H         3.649626   3.16543   2.755056 H        1 UNL1     0.0317
     87 H         2.016128   3.271599   2.283078 H        1 UNL1     0.0317
     88 H         2.366255   7.41759   2.967356 H        1 UNL1     0.0429
     89 H         0.629987   7.318265   2.664467 H        1 UNL1     0.0429
     90 H         2.119793   8.144854   5.095202 H        1 UNL1     0.0308
     91 H         -0.801468   8.490534   5.201398 H        1 UNL1     0.0233
     92 H         0.48004   9.724304   5.0963 H        1 UNL1     0.0233
     93 H         -0.184565   9.016386   3.639676 H        1 UNL1     0.0233
     94 H         -0.212013   6.314673   5.645749 H        1 UNL1     0.0233
     95 H         1.466906   5.752966   5.63916 H        1 UNL1     0.0233
     96 H         0.953532   7.004887   6.793774 H        1 UNL1     0.0233
     97 H         2.405607   -3.27329   10.337761 H        1 UNL1     0.0280
     98 H         0.845226   -3.390657   9.570542 H        1 UNL1     0.0280
     99 H         2.253689   -4.224213   8.848635 H        1 UNL1     0.0280
     100 H         3.643573   -0.195129   10.534228 H        1 UNL1     0.2922
     101 H         4.808618   -1.176436   -0.075475 H        1 UNL1     0.0236
     102 H         5.879584   -1.072102   1.376492 H        1 UNL1     0.0236
     103 H         5.870496   0.175163   0.168293 H        1 UNL1     0.0236
     104 H         4.032017   0.349452   -1.212861 H        1 UNL1     0.2098
     105 H         0.289112   0.754757   -1.53543 H        1 UNL1     0.0234
     106 H         -0.577641   -0.798753   -1.372817 H        1 UNL1     0.0234
     107 H         -0.0   0.0   0.0 H        1 UNL1     0.0234
     108 H         2.476237   -2.650564   0.47035 H        1 UNL1     0.2098
     109 H         -1.994964   -0.48563   0.978607 H        1 UNL1     0.0234
     110 H         -1.374337   -1.304628   2.447235 H        1 UNL1     0.0234
     111 H         -0.305918   -0.917617   1.144336 H        1 UNL1     0.0234
     112 H         -1.050064   -2.275041   -3.730705 H        1 UNL1     0.0342
     113 H         -2.311253   -3.147892   -4.67186 H        1 UNL1     0.0342
     114 H         -2.258728   -1.382896   -4.671314 H        1 UNL1     0.0342
     115 H         0.02998   -5.209782   -2.745631 H        1 UNL1     0.0234
     116 H         0.572552   -5.414303   -1.076927 H        1 UNL1     0.0234
     117 H         -1.144935   -5.343786   -1.522925 H        1 UNL1     0.0234
     118 H         -0.950059   -3.537115   5.569 H        1 UNL1     0.0309
     119 H         -0.584228   -1.944252   6.301813 H        1 UNL1     0.0309
     120 H         -0.833312   -2.128505   4.579557 H        1 UNL1     0.0309
     121 H         -0.531322   -6.750272   0.062679 H        1 UNL1     0.0524
     122 H         -1.531616   -6.507096   1.500432 H        1 UNL1     0.0524
     123 H         -2.019219   -5.771261   -0.046996 H        1 UNL1     0.0524
@<TRIPOS>BOND
     1     1     2    1
     2     1    42    1
     3     2     3    2
     4     3     4    1
     5     4     5    2
     6     5     7    1
     7     6    75    1
     8     6    76    1
     9     6    77    1
    10     7     9   am
    11     9    10    1
    12    10    11    2
    13    10    43    1
    14    11    14    1
    15    11    15    1
    16    12    13   ar
    17    12    27   ar
    18    12    43    1
    19    13    14    1
    20    13    30   ar
    21    14    17    2
    22    15    16    1
    23    16    17    1
    24    16    18    1
    25    16    22    1
    26    18    19    1
    27    19    20    1
    28    20    21    1
    29    21    22    1
    30    23    24    1
    31    23    88    1
    32    23    89    1
    33    24    25    1
    34    24    26    1
    35    24    90    1
    36    25    91    1
    37    25    92    1
    38    25    93    1
    39    26    94    1
    40    26    95    1
    41    26    96    1
    42    27    28   ar
    43    28    29   ar
    44    29    30   ar
    45    29    31    1
    46    30    33    1
    47    31    32    1
    48    32    33    1
    49    32    35    1
    50    34    97    1
    51    34    98    1
    52    34    99    1
    53    35    61    1
    54    36    37    1
    55    36    60    1
    56    37    38    1
    57    38    39    1
    58    39    40    1
    59    40    41    1
    60    41    42    1
    61    45   100    1
    62    47   101    1
    63    47   102    1
    64    47   103    1
    65    48   104    1
    66    49   105    1
    67    49   106    1
    68    49   107    1
    69    50   108    1
    70    51    59    1
    71    52   109    1
    72    52   110    1
    73    52   111    1
    74    53    54    1
    75    54    55    2
    76    54    56    1
    77    56   112    1
    78    56   113    1
    79    56   114    1
    80    57   115    1
    81    57   116    1
    82    57   117    1
    83    58   118    1
    84    58   119    1
    85    58   120    1
    86    59   121    1
    87    59   122    1
    88    59   123    1
    89    60    61    2
    90     1    47    1
    91     1    62    1
    92     2    63    1
    93     3    64    1
    94     4    65    1
    95     5     6    1
    96     7     8    2
    97     9    78    1
    98    15    79    1
    99    18    80    1
   100    18    81    1
   101    19    82    1
   102    19    83    1
   103    20    23    1
   104    21    84    1
   105    21    85    1
   106    22    86    1
   107    22    87    1
   108    27    45    1
   109    28    34    1
   110    32    58    1
   111    33    46    2
   112    36    51    1
   113    36    66    1
   114    37    52    1
   115    37    67    1
   116    38    53    1
   117    38    68    1
   118    42    48    1
   119    42    72    1
   120    43    44    2
   121    60    73    1
   122    61    74    1
   123    39    69    1
   124    39    57    1
   125    40    70    1
   126    40    50    1
   127    41    71    1
   128    41    49    1
