@<TRIPOS>MOLECULE
*****
 123 128 0 0 0
SMALL
GASTEIGER

@<TRIPOS>ATOM
     1 C         1.159123   4.285707   2.90408 C.3        1 UNL1     0.0009
     2 C         0.347554   5.579933   3.954495 C.2        1 UNL1     -0.0787
     3 C         -0.028547   6.959538   4.18096 C.2        1 UNL1     -0.0649
     4 C         -0.981945   7.586299   5.431784 C.2        1 UNL1     -0.0542
     5 C         -1.78111   8.680315   5.845961 C.2        1 UNL1     0.0115
     6 C         -2.200767   10.13413   5.494349 C.3        1 UNL1     -0.0348
     7 C         -2.805017   8.476693   7.065445 C.2        1 UNL1     0.2441
     8 O         -2.578087   8.877311   8.198818 O.2        1 UNL1     -0.2702
     9 N         -4.088128   8.041503   6.690763 N.am        1 UNL1     -0.2772
     10 C         -4.132688   6.667262   6.637879 C.2        1 UNL1     0.1049
     11 C         -3.690791   6.113043   5.523523 C.2        1 UNL1     0.0801
     12 C         -3.546486   4.612144   7.937953 C.ar        1 UNL1     0.0753
     13 C         -2.895024   4.143324   6.752873 C.ar        1 UNL1     0.0305
     14 C         -3.060272   4.821959   5.469441 C.2        1 UNL1     0.0924
     15 N         -3.394034   6.673739   4.338583 N.pl3        1 UNL1     -0.3170
     16 C         -3.120989   5.61234   3.406311 C.3        1 UNL1     0.1275
     17 N         -2.618203   4.476525   4.263548 N.2        1 UNL1     -0.2557
     18 C         -4.460672   5.153471   2.838516 C.3        1 UNL1     0.0016
     19 C         -5.169076   6.354528   2.232534 C.3        1 UNL1     0.0026
     20 N         -4.32372   6.919072   1.189609 N.3        1 UNL1     -0.3018
     21 C         -2.989269   7.333647   1.627487 C.3        1 UNL1     0.0026
     22 C         -2.293997   6.11086   2.228555 C.3        1 UNL1     0.0016
     23 C         -5.022885   7.872845   0.351678 C.3        1 UNL1     0.0012
     24 C         -5.717919   8.938811   1.213304 C.3        1 UNL1     -0.0339
     25 C         -6.874814   9.608983   0.454015 C.3        1 UNL1     -0.0615
     26 C         -6.18825   8.325959   2.520967 C.3        1 UNL1     -0.0615
     27 C         -3.482368   3.89329   9.129278 C.ar        1 UNL1     0.1347
     28 C         -2.832766   2.677485   9.247113 C.ar        1 UNL1     0.0342
     29 C         -2.157562   2.25973   8.080603 C.ar        1 UNL1     0.1435
     30 C         -2.182759   2.987317   6.89014 C.ar        1 UNL1     0.0774
     31 O         -1.571108   1.045245   8.002485 O.3        1 UNL1     -0.4436
     32 C         -1.429913   0.80056   6.594981 C.3        1 UNL1     0.3143
     33 C         -1.440137   2.172399   5.951424 C.2        1 UNL1     0.2504
     34 C         -2.932729   1.733778   10.413099 C.3        1 UNL1     -0.0327
     35 O         -0.122623   0.251923   6.387032 O.2        1 UNL1     -0.4528
     36 C         -0.415324   -2.014773   3.356438 C.3        1 UNL1     0.0854
     37 C         -0.900343   -1.668257   1.89623 C.3        1 UNL1     0.0236
     38 C         0.137648   -2.042758   0.732585 C.3        1 UNL1     0.1131
     39 C         1.642163   -1.565948   0.839155 C.3        1 UNL1     0.0200
     40 C         2.003759   -0.01461   1.334168 C.3        1 UNL1     0.0661
     41 C         1.318997   1.409947   0.718257 C.3        1 UNL1     0.0091
     42 C         0.961426   3.010523   1.540269 C.3        1 UNL1     0.0661
     43 C         -4.367497   5.843921   7.833425 C.2        1 UNL1     0.2131
     44 O         -5.258167   6.127368   8.613874 O.2        1 UNL1     -0.2851
     45 O         -4.105583   4.442035   10.24817 O.3        1 UNL1     -0.5056
     46 O         -0.930832   2.519695   4.909384 O.2        1 UNL1     -0.2836
     47 C         2.703954   4.393899   3.012573 C.3        1 UNL1     -0.0566
     48 O         1.56342   3.829619   0.460545 O.3        1 UNL1     -0.3909
     49 C         0.097755   1.050884   -0.098526 C.3        1 UNL1     -0.0577
     50 O         2.080898   0.05652   2.743676 O.3        1 UNL1     -0.3910
     51 O         0.922547   -2.442874   3.475865 O.3        1 UNL1     -0.3753
     52 C         -1.750172   -0.356186   1.861434 C.3        1 UNL1     -0.0564
     53 O         -0.470019   -2.034939   -0.639641 O.3        1 UNL1     -0.4608
     54 C         -0.610261   -3.128604   -1.453373 C.2        1 UNL1     0.3042
     55 O         -0.364955   -4.302023   -1.176332 O.2        1 UNL1     -0.2512
     56 C         -1.183543   -2.804116   -2.803472 C.3        1 UNL1     0.0332
     57 C         2.484748   -2.766975   1.476147 C.3        1 UNL1     -0.0567
     58 C         -2.698629   0.033603   6.154904 C.3        1 UNL1     0.0210
     59 C         1.397993   -2.556925   4.816316 C.3        1 UNL1     0.0372
     60 C         -0.610157   -0.93085   4.357592 C.2        1 UNL1     -0.0208
     61 C         0.213768   -0.462491   5.295959 C.2        1 UNL1     0.0882
     62 H         0.846711   3.526778   3.631499 H        1 UNL1     0.0365
     63 H         0.064635   4.986488   4.826418 H        1 UNL1     0.0576
     64 H         0.150497   7.732313   3.430048 H        1 UNL1     0.0615
     65 H         -1.032127   6.768668   6.15597 H        1 UNL1     0.0622
     66 H         -1.067317   -2.840185   3.675257 H        1 UNL1     0.0645
     67 H         -1.713587   -2.38994   1.705531 H        1 UNL1     0.0362
     68 H         0.168385   -3.135816   0.858286 H        1 UNL1     0.0741
     69 H         2.092376   -1.612295   -0.143478 H        1 UNL1     0.0359
     70 H         3.055414   0.053256   0.995823 H        1 UNL1     0.0600
     71 H         2.050882   1.647412   -0.078557 H        1 UNL1     0.0348
     72 H         1.701593   2.502233   2.175178 H        1 UNL1     0.0602
     73 H         -1.620459   -0.605769   4.328231 H        1 UNL1     0.0628
     74 H         1.276117   -0.700693   5.358504 H        1 UNL1     0.1022
     75 H         -1.385735   10.652826   4.934249 H        1 UNL1     0.0279
     76 H         -3.051715   10.245262   4.826062 H        1 UNL1     0.0279
     77 H         -2.295893   10.775893   6.382488 H        1 UNL1     0.0279
     78 H         -4.309946   8.391196   5.76093 H        1 UNL1     0.1553
     79 H         -3.722345   7.57774   4.052352 H        1 UNL1     0.1484
     80 H         -4.282772   4.373103   2.088754 H        1 UNL1     0.0317
     81 H         -5.082564   4.702242   3.619089 H        1 UNL1     0.0317
     82 H         -5.41521   7.109009   2.99417 H        1 UNL1     0.0428
     83 H         -6.122626   6.005284   1.835266 H        1 UNL1     0.0428
     84 H         -2.347496   7.679428   0.811169 H        1 UNL1     0.0428
     85 H         -3.032181   8.190251   2.314296 H        1 UNL1     0.0428
     86 H         -1.280913   6.41602   2.41437 H        1 UNL1     0.0317
     87 H         -2.187776   5.328324   1.467338 H        1 UNL1     0.0317
     88 H         -4.283724   8.369767   -0.290198 H        1 UNL1     0.0429
     89 H         -5.739167   7.371035   -0.311574 H        1 UNL1     0.0429
     90 H         -4.988356   9.709484   1.48901 H        1 UNL1     0.0308
     91 H         -7.650147   9.961291   1.140921 H        1 UNL1     0.0233
     92 H         -6.511068   10.451526   -0.138791 H        1 UNL1     0.0233
     93 H         -7.362021   8.925877   -0.252264 H        1 UNL1     0.0233
     94 H         -5.532392   8.636971   3.341307 H        1 UNL1     0.0233
     95 H         -7.201177   8.668083   2.750951 H        1 UNL1     0.0233
     96 H         -6.187092   7.233416   2.472828 H        1 UNL1     0.0233
     97 H         -2.004876   1.195582   10.5824 H        1 UNL1     0.0280
     98 H         -3.151628   2.258248   11.352392 H        1 UNL1     0.0280
     99 H         -3.730209   0.996658   10.223958 H        1 UNL1     0.0280
     100 H         -4.43595   5.314406   10.123879 H        1 UNL1     0.2922
     101 H         2.968632   5.165455   3.735278 H        1 UNL1     0.0236
     102 H         3.191323   4.549956   2.050751 H        1 UNL1     0.0236
     103 H         3.156841   3.470477   3.410543 H        1 UNL1     0.0236
     104 H         2.161865   3.250207   -0.050449 H        1 UNL1     0.2098
     105 H         -0.825895   1.505191   0.25117 H        1 UNL1     0.0234
     106 H         0.208608   1.199059   -1.172622 H        1 UNL1     0.0234
     107 H         0.0   0.0   0.0 H        1 UNL1     0.0234
     108 H         1.186711   -0.12361   3.092604 H        1 UNL1     0.2098
     109 H         -1.195839   0.487045   1.426247 H        1 UNL1     0.0234
     110 H         -2.705213   -0.475718   1.338603 H        1 UNL1     0.0234
     111 H         -2.037885   -0.033447   2.870893 H        1 UNL1     0.0234
     112 H         -0.388829   -2.806737   -3.555649 H        1 UNL1     0.0342
     113 H         -1.986953   -3.484588   -3.081563 H        1 UNL1     0.0342
     114 H         -1.605169   -1.79035   -2.762547 H        1 UNL1     0.0342
     115 H         3.564   -2.561595   1.461257 H        1 UNL1     0.0234
     116 H         2.209953   -3.004933   2.505668 H        1 UNL1     0.0234
     117 H         2.437013   -3.698851   0.886851 H        1 UNL1     0.0234
     118 H         -2.941388   -0.795372   6.842564 H        1 UNL1     0.0309
     119 H         -3.575974   0.679521   6.048806 H        1 UNL1     0.0309
     120 H         -2.572794   -0.46799   5.189152 H        1 UNL1     0.0309
     121 H         2.313327   -1.970649   4.892476 H        1 UNL1     0.0524
     122 H         0.681856   -2.151173   5.550176 H        1 UNL1     0.0524
     123 H         1.598059   -3.597204   5.056913 H        1 UNL1     0.0524
@<TRIPOS>BOND
     1     1     2    1
     2     1    42    1
     3     2     3    2
     4     3     4    1
     5     4     5    2
     6     5     7    1
     7     6    75    1
     8     6    76    1
     9     6    77    1
    10     7     9   am
    11     9    10    1
    12    10    11    2
    13    10    43    1
    14    11    14    1
    15    11    15    1
    16    12    13   ar
    17    12    27   ar
    18    12    43    1
    19    13    14    1
    20    13    30   ar
    21    14    17    2
    22    15    16    1
    23    16    17    1
    24    16    18    1
    25    16    22    1
    26    18    19    1
    27    19    20    1
    28    20    21    1
    29    21    22    1
    30    23    24    1
    31    23    88    1
    32    23    89    1
    33    24    25    1
    34    24    26    1
    35    24    90    1
    36    25    91    1
    37    25    92    1
    38    25    93    1
    39    26    94    1
    40    26    95    1
    41    26    96    1
    42    27    28   ar
    43    28    29   ar
    44    29    30   ar
    45    29    31    1
    46    30    33    1
    47    31    32    1
    48    32    33    1
    49    32    35    1
    50    34    97    1
    51    34    98    1
    52    34    99    1
    53    35    61    1
    54    36    37    1
    55    36    60    1
    56    37    38    1
    57    38    39    1
    58    39    40    1
    59    40    41    1
    60    41    42    1
    61    45   100    1
    62    47   101    1
    63    47   102    1
    64    47   103    1
    65    48   104    1
    66    49   105    1
    67    49   106    1
    68    49   107    1
    69    50   108    1
    70    51    59    1
    71    52   109    1
    72    52   110    1
    73    52   111    1
    74    53    54    1
    75    54    55    2
    76    54    56    1
    77    56   112    1
    78    56   113    1
    79    56   114    1
    80    57   115    1
    81    57   116    1
    82    57   117    1
    83    58   118    1
    84    58   119    1
    85    58   120    1
    86    59   121    1
    87    59   122    1
    88    59   123    1
    89    60    61    2
    90     1    47    1
    91     1    62    1
    92     2    63    1
    93     3    64    1
    94     4    65    1
    95     5     6    1
    96     7     8    2
    97     9    78    1
    98    15    79    1
    99    18    80    1
   100    18    81    1
   101    19    82    1
   102    19    83    1
   103    20    23    1
   104    21    84    1
   105    21    85    1
   106    22    86    1
   107    22    87    1
   108    27    45    1
   109    28    34    1
   110    32    58    1
   111    33    46    2
   112    36    51    1
   113    36    66    1
   114    37    52    1
   115    37    67    1
   116    38    53    1
   117    38    68    1
   118    42    48    1
   119    42    72    1
   120    43    44    2
   121    60    73    1
   122    61    74    1
   123    39    69    1
   124    39    57    1
   125    40    70    1
   126    40    50    1
   127    41    71    1
   128    41    49    1
