@<TRIPOS>MOLECULE
*****
 123 128 0 0 0
SMALL
GASTEIGER

@<TRIPOS>ATOM
     1 C         -4.546245   -0.749849   -2.37139 C.3        1 UNL1     0.0009
     2 C         -5.239474   -1.725901   -3.786944 C.2        1 UNL1     -0.0787
     3 C         -5.855625   -1.775369   -5.096125 C.2        1 UNL1     -0.0649
     4 C         -6.190264   -3.142028   -6.037728 C.2        1 UNL1     -0.0542
     5 C         -6.46188   -3.612299   -7.346219 C.2        1 UNL1     0.0115
     6 C         -6.798197   -3.168438   -8.796461 C.3        1 UNL1     -0.0348
     7 C         -6.279892   -5.175408   -7.663328 C.2        1 UNL1     0.2441
     8 O         -7.22159   -5.952102   -7.743811 O.2        1 UNL1     -0.2702
     9 N         -4.994821   -5.542183   -8.099472 N.am        1 UNL1     -0.2772
     10 C         -4.187578   -5.833354   -7.023878 C.2        1 UNL1     0.1049
     11 C         -3.619068   -4.801669   -6.426681 C.2        1 UNL1     0.0801
     12 C         -4.112022   -7.15335   -4.900382 C.ar        1 UNL1     0.0753
     13 C         -3.694761   -5.945227   -4.256224 C.ar        1 UNL1     0.0305
     14 C         -3.30836   -4.763165   -5.023344 C.2        1 UNL1     0.0924
     15 N         -3.52699   -3.519461   -6.819097 N.pl3        1 UNL1     -0.3170
     16 C         -2.660144   -2.83817   -5.89461 C.3        1 UNL1     0.1275
     17 N         -2.807913   -3.604796   -4.603033 N.2        1 UNL1     -0.2557
     18 C         -1.226995   -3.07056   -6.363417 C.3        1 UNL1     0.0016
     19 C         -1.103867   -2.598879   -7.803537 C.3        1 UNL1     0.0026
     20 N         -1.452515   -1.186165   -7.864481 N.3        1 UNL1     -0.3018
     21 C         -2.792513   -0.854842   -7.375606 C.3        1 UNL1     0.0026
     22 C         -2.892506   -1.333324   -5.926141 C.3        1 UNL1     0.0016
     23 C         -1.083617   -0.568027   -9.12244 C.3        1 UNL1     0.0012
     24 C         0.443986   -0.44161   -9.232917 C.3        1 UNL1     -0.0339
     25 C         0.849247   0.828832   -9.998291 C.3        1 UNL1     -0.0615
     26 C         1.071508   -0.485478   -7.850501 C.3        1 UNL1     -0.0615
     27 C         -4.36238   -8.311966   -4.168912 C.ar        1 UNL1     0.1347
     28 C         -4.192178   -8.39497   -2.798441 C.ar        1 UNL1     0.0342
     29 C         -3.828056   -7.180155   -2.179729 C.ar        1 UNL1     0.1435
     30 C         -3.608947   -6.002425   -2.895386 C.ar        1 UNL1     0.0774
     31 O         -3.517601   -7.1236   -0.866175 O.3        1 UNL1     -0.4436
     32 C         -2.769306   -5.906937   -0.722441 C.3        1 UNL1     0.3143
     33 C         -3.187717   -5.043605   -1.895388 C.2        1 UNL1     0.2504
     34 C         -4.197137   -9.65879   -1.984295 C.3        1 UNL1     -0.0327
     35 O         -3.239538   -5.255263   0.463921 O.2        1 UNL1     -0.4528
     36 C         -0.278533   -3.309412   1.825611 C.3        1 UNL1     0.0854
     37 C         0.592336   -2.198618   1.121874 C.3        1 UNL1     0.0236
     38 C         0.688637   -0.809978   1.918209 C.3        1 UNL1     0.1131
     39 C         -0.632243   -0.101967   2.424436 C.3        1 UNL1     0.0200
     40 C         -1.971116   -0.004227   1.434332 C.3        1 UNL1     0.0661
     41 C         -1.98091   0.538232   -0.172918 C.3        1 UNL1     0.0091
     42 C         -3.030215   0.03687   -1.591719 C.3        1 UNL1     0.0661
     43 C         -4.182961   -7.156684   -6.382683 C.2        1 UNL1     0.2131
     44 O         -4.135039   -8.169787   -7.056525 O.2        1 UNL1     -0.2851
     45 O         -4.808862   -9.431936   -4.867309 O.3        1 UNL1     -0.5056
     46 O         -3.193263   -3.835704   -1.977829 O.2        1 UNL1     -0.2836
     47 C         -5.693685   -0.109802   -1.544526 C.3        1 UNL1     -0.0566
     48 O         -3.336554   1.428151   -2.003558 O.3        1 UNL1     -0.3909
     49 C         -0.556098   0.596839   -0.676873 C.3        1 UNL1     -0.0577
     50 O         -2.771694   -1.162432   1.558262 O.3        1 UNL1     -0.3910
     51 O         -1.000009   -2.897013   2.964395 O.3        1 UNL1     -0.3753
     52 C         0.461683   -2.256553   -0.435214 C.3        1 UNL1     -0.0564
     53 O         1.782287   0.091143   1.424008 O.3        1 UNL1     -0.4608
     54 C         1.70718   1.456404   1.332612 C.2        1 UNL1     0.3042
     55 O         1.529015   2.128306   0.317406 O.2        1 UNL1     -0.2512
     56 C         1.804847   2.15424   2.659337 C.3        1 UNL1     0.0332
     57 C         -0.860792   -0.538741   3.946004 C.3        1 UNL1     -0.0567
     58 C         -1.279669   -6.287297   -0.889286 C.3        1 UNL1     0.0210
     59 C         -0.493376   -3.387219   4.204914 C.3        1 UNL1     0.0372
     60 C         -1.244719   -4.008792   0.935379 C.2        1 UNL1     -0.0208
     61 C         -2.524643   -4.32879   1.130675 C.2        1 UNL1     0.0882
     62 H         -4.289053   -1.692096   -1.872659 H        1 UNL1     0.0365
     63 H         -5.165224   -2.740602   -3.390284 H        1 UNL1     0.0576
     64 H         -6.019308   -0.870917   -5.686279 H        1 UNL1     0.0615
     65 H         -6.074836   -3.974775   -5.338664 H        1 UNL1     0.0622
     66 H         0.448052   -4.071903   2.139822 H        1 UNL1     0.0645
     67 H         1.62684   -2.573804   1.209036 H        1 UNL1     0.0362
     68 H         1.201909   -1.15524   2.828631 H        1 UNL1     0.0741
     69 H         -0.413122   0.937291   2.630196 H        1 UNL1     0.0359
     70 H         -2.541417   0.783997   1.962083 H        1 UNL1     0.0600
     71 H         -2.198928   1.612414   -0.013047 H        1 UNL1     0.0348
     72 H         -3.567645   -0.285713   -0.688157 H        1 UNL1     0.0602
     73 H         -0.731517   -4.372018   0.079845 H        1 UNL1     0.0628
     74 H         -3.136853   -3.950201   1.949886 H        1 UNL1     0.1022
     75 H         -7.61233   -2.404098   -8.793651 H        1 UNL1     0.0279
     76 H         -6.005914   -2.664776   -9.345716 H        1 UNL1     0.0279
     77 H         -7.256997   -3.97168   -9.391445 H        1 UNL1     0.0279
     78 H         -4.569   -4.765262   -8.600617 H        1 UNL1     0.1553
     79 H         -3.656988   -3.216324   -7.7668 H        1 UNL1     0.1484
     80 H         -0.541968   -2.524911   -5.703286 H        1 UNL1     0.0317
     81 H         -0.957607   -4.129545   -6.288367 H        1 UNL1     0.0317
     82 H         -1.735076   -3.19196   -8.48158 H        1 UNL1     0.0428
     83 H         -0.074888   -2.775395   -8.118328 H        1 UNL1     0.0428
     84 H         -2.999587   0.219684   -7.357555 H        1 UNL1     0.0428
     85 H         -3.577796   -1.267023   -8.024263 H        1 UNL1     0.0428
     86 H         -3.830707   -0.958141   -5.561444 H        1 UNL1     0.0317
     87 H         -2.152563   -0.811205   -5.307293 H        1 UNL1     0.0317
     88 H         -1.440855   -1.211639   -9.936957 H        1 UNL1     0.0429
     89 H         -1.571617   0.407393   -9.245675 H        1 UNL1     0.0429
     90 H         0.838686   -1.312958   -9.768806 H        1 UNL1     0.0308
     91 H         0.287021   1.700005   -9.648919 H        1 UNL1     0.0233
     92 H         1.918414   1.023205   -9.885552 H        1 UNL1     0.0233
     93 H         0.66599   0.74332   -11.076224 H        1 UNL1     0.0233
     94 H         2.06361   -0.021643   -7.871164 H        1 UNL1     0.0233
     95 H         0.45324   0.072405   -7.141647 H        1 UNL1     0.0233
     96 H         1.17805   -1.513515   -7.493071 H        1 UNL1     0.0233
     97 H         -3.266729   -9.797658   -1.441812 H        1 UNL1     0.0280
     98 H         -4.990428   -9.65906   -1.225384 H        1 UNL1     0.0280
     99 H         -4.341993   -10.525741   -2.649508 H        1 UNL1     0.0280
     100 H         -5.526109   -9.267311   -5.45389 H        1 UNL1     0.2922
     101 H         -5.829408   -0.662227   -0.614977 H        1 UNL1     0.0236
     102 H         -6.62393   -0.015393   -2.103736 H        1 UNL1     0.0236
     103 H         -5.451466   0.917989   -1.226454 H        1 UNL1     0.0236
     104 H         -4.000846   1.384505   -2.718947 H        1 UNL1     0.2098
     105 H         -0.415308   0.187838   -1.674224 H        1 UNL1     0.0234
     106 H         -0.086158   1.577299   -0.600839 H        1 UNL1     0.0234
     107 H         0.0   0.0   0.0 H        1 UNL1     0.0234
     108 H         -3.396741   -1.005878   2.292139 H        1 UNL1     0.2098
     109 H         0.801446   -3.217691   -0.845686 H        1 UNL1     0.0234
     110 H         -0.552606   -2.044547   -0.790199 H        1 UNL1     0.0234
     111 H         1.079672   -1.490346   -0.922002 H        1 UNL1     0.0234
     112 H         1.717159   3.235797   2.518299 H        1 UNL1     0.0342
     113 H         1.062546   1.791264   3.368619 H        1 UNL1     0.0342
     114 H         2.797826   1.949213   3.082564 H        1 UNL1     0.0342
     115 H         -1.636722   0.067931   4.432903 H        1 UNL1     0.0234
     116 H         -1.138003   -1.58747   4.069981 H        1 UNL1     0.0234
     117 H         0.007294   -0.336714   4.596813 H        1 UNL1     0.0234
     118 H         -0.721115   -6.201502   0.05922 H        1 UNL1     0.0309
     119 H         -1.136128   -7.291806   -1.299847 H        1 UNL1     0.0309
     120 H         -0.744511   -5.606249   -1.56002 H        1 UNL1     0.0309
     121 H         -1.322141   -3.414391   4.911856 H        1 UNL1     0.0524
     122 H         -0.096638   -4.41252   4.118927 H        1 UNL1     0.0524
     123 H         0.292853   -2.734726   4.573953 H        1 UNL1     0.0524
@<TRIPOS>BOND
     1     1     2    1
     2     1    42    1
     3     2     3    2
     4     3     4    1
     5     4     5    2
     6     5     7    1
     7     6    75    1
     8     6    76    1
     9     6    77    1
    10     7     9   am
    11     9    10    1
    12    10    11    2
    13    10    43    1
    14    11    14    1
    15    11    15    1
    16    12    13   ar
    17    12    27   ar
    18    12    43    1
    19    13    14    1
    20    13    30   ar
    21    14    17    2
    22    15    16    1
    23    16    17    1
    24    16    18    1
    25    16    22    1
    26    18    19    1
    27    19    20    1
    28    20    21    1
    29    21    22    1
    30    23    24    1
    31    23    88    1
    32    23    89    1
    33    24    25    1
    34    24    26    1
    35    24    90    1
    36    25    91    1
    37    25    92    1
    38    25    93    1
    39    26    94    1
    40    26    95    1
    41    26    96    1
    42    27    28   ar
    43    28    29   ar
    44    29    30   ar
    45    29    31    1
    46    30    33    1
    47    31    32    1
    48    32    33    1
    49    32    35    1
    50    34    97    1
    51    34    98    1
    52    34    99    1
    53    35    61    1
    54    36    37    1
    55    36    60    1
    56    37    38    1
    57    38    39    1
    58    39    40    1
    59    40    41    1
    60    41    42    1
    61    45   100    1
    62    47   101    1
    63    47   102    1
    64    47   103    1
    65    48   104    1
    66    49   105    1
    67    49   106    1
    68    49   107    1
    69    50   108    1
    70    51    59    1
    71    52   109    1
    72    52   110    1
    73    52   111    1
    74    53    54    1
    75    54    55    2
    76    54    56    1
    77    56   112    1
    78    56   113    1
    79    56   114    1
    80    57   115    1
    81    57   116    1
    82    57   117    1
    83    58   118    1
    84    58   119    1
    85    58   120    1
    86    59   121    1
    87    59   122    1
    88    59   123    1
    89    60    61    2
    90     1    47    1
    91     1    62    1
    92     2    63    1
    93     3    64    1
    94     4    65    1
    95     5     6    1
    96     7     8    2
    97     9    78    1
    98    15    79    1
    99    18    80    1
   100    18    81    1
   101    19    82    1
   102    19    83    1
   103    20    23    1
   104    21    84    1
   105    21    85    1
   106    22    86    1
   107    22    87    1
   108    27    45    1
   109    28    34    1
   110    32    58    1
   111    33    46    2
   112    36    51    1
   113    36    66    1
   114    37    52    1
   115    37    67    1
   116    38    53    1
   117    38    68    1
   118    42    48    1
   119    42    72    1
   120    43    44    2
   121    60    73    1
   122    61    74    1
   123    39    69    1
   124    39    57    1
   125    40    70    1
   126    40    50    1
   127    41    71    1
   128    41    49    1
