@<TRIPOS>MOLECULE
*****
 123 128 0 0 0
SMALL
GASTEIGER

@<TRIPOS>ATOM
     1 C         5.166891   1.749923   0.490184 C.3        1 UNL1     0.0009
     2 C         6.603162   2.556501   -0.360459 C.2        1 UNL1     -0.0787
     3 C         7.884885   2.458718   -1.026545 C.2        1 UNL1     -0.0649
     4 C         8.761842   3.694166   -1.782173 C.2        1 UNL1     -0.0542
     5 C         9.781548   3.987196   -2.721008 C.2        1 UNL1     0.0115
     6 C         10.909661   3.362151   -3.587036 C.3        1 UNL1     -0.0348
     7 C         9.876378   5.47057   -3.327308 C.2        1 UNL1     0.2441
     8 O         10.70017   6.292351   -2.949727 O.2        1 UNL1     -0.2702
     9 N         9.125794   5.677544   -4.497751 N.am        1 UNL1     -0.2772
     10 C         7.843073   6.063876   -4.183592 C.2        1 UNL1     0.1049
     11 C         6.997592   5.09222   -3.891583 C.2        1 UNL1     0.0801
     12 C         6.544683   7.670004   -2.772256 C.ar        1 UNL1     0.0753
     13 C         5.786009   6.541841   -2.324739 C.ar        1 UNL1     0.0305
     14 C         5.903072   5.236268   -2.97036 C.2        1 UNL1     0.0924
     15 N         7.12048   3.763295   -4.050912 N.pl3        1 UNL1     -0.3170
     16 C         5.850845   3.16378   -3.736489 C.3        1 UNL1     0.1275
     17 N         5.214485   4.118713   -2.756249 N.2        1 UNL1     -0.2557
     18 C         4.997645   3.222847   -4.999921 C.3        1 UNL1     0.0016
     19 C         5.752383   2.539107   -6.128841 C.3        1 UNL1     0.0026
     20 N         6.02295   1.161008   -5.743268 N.3        1 UNL1     -0.3018
     21 C         6.786677   1.0006   -4.504172 C.3        1 UNL1     0.0026
     22 C         6.008071   1.690764   -3.38286 C.3        1 UNL1     0.0016
     23 C         6.467351   0.341746   -6.853206 C.3        1 UNL1     0.0012
     24 C         5.311701   0.092153   -7.835007 C.3        1 UNL1     -0.0339
     25 C         5.346862   1.084491   -9.008925 C.3        1 UNL1     -0.0615
     26 C         5.341008   -1.347263   -8.318745 C.3        1 UNL1     -0.0615
     27 C         6.339872   8.937566   -2.23239 C.ar        1 UNL1     0.1347
     28 C         5.381008   9.206743   -1.27209 C.ar        1 UNL1     0.0342
     29 C         4.679835   8.072058   -0.811643 C.ar        1 UNL1     0.1435
     30 C         4.899442   6.79016   -1.317341 C.ar        1 UNL1     0.0774
     31 O         3.639048   8.185251   0.042146 O.3        1 UNL1     -0.4436
     32 C         2.91762   6.952284   -0.100007 C.3        1 UNL1     0.3143
     33 C         3.931004   5.959496   -0.632582 C.2        1 UNL1     0.2504
     34 C         4.93397   10.572675   -0.831085 C.3        1 UNL1     -0.0327
     35 O         2.557444   6.515301   1.216265 O.2        1 UNL1     -0.4528
     36 C         -0.68526   4.582418   0.820127 C.3        1 UNL1     0.0854
     37 C         -0.990517   3.321896   -0.077328 C.3        1 UNL1     0.0236
     38 C         -1.590562   2.060595   0.710587 C.3        1 UNL1     0.1131
     39 C         -0.864322   1.529637   2.011713 C.3        1 UNL1     0.0200
     40 C         0.796915   1.384473   2.052401 C.3        1 UNL1     0.0661
     41 C         1.756141   0.616039   0.883212 C.3        1 UNL1     0.0091
     42 C         3.463488   0.979077   0.318789 C.3        1 UNL1     0.0661
     43 C         7.494464   7.462687   -3.893503 C.2        1 UNL1     0.2131
     44 O         7.893939   8.360963   -4.612014 O.2        1 UNL1     -0.2851
     45 O         7.151771   9.97293   -2.690953 O.3        1 UNL1     -0.5056
     46 O         3.94731   4.755947   -0.501984 O.2        1 UNL1     -0.2836
     47 C         5.563752   1.320331   1.928215 C.3        1 UNL1     -0.0566
     48 O         3.912402   -0.431935   0.400248 O.3        1 UNL1     -0.3909
     49 C         0.921663   0.383433   -0.356561 C.3        1 UNL1     -0.0577
     50 O         1.39694   2.602419   2.445214 O.3        1 UNL1     -0.3910
     51 O         -0.808917   4.392517   2.211558 O.3        1 UNL1     -0.3753
     52 C         0.053654   3.161831   -1.230166 C.3        1 UNL1     -0.0564
     53 O         -2.193175   1.021599   -0.189231 O.3        1 UNL1     -0.4608
     54 C         -2.427188   -0.285255   0.150329 C.2        1 UNL1     0.3042
     55 O         -1.857981   -1.284192   -0.287812 O.2        1 UNL1     -0.2512
     56 C         -3.466868   -0.451291   1.221874 C.3        1 UNL1     0.0332
     57 C         -1.585152   2.198287   3.273254 C.3        1 UNL1     -0.0567
     58 C         1.842065   7.197278   -1.183837 C.3        1 UNL1     0.0210
     59 C         -1.122179   5.571346   2.951891 C.3        1 UNL1     0.0372
     60 C         0.643526   5.211841   0.589226 C.2        1 UNL1     -0.0208
     61 C         1.556605   5.647164   1.458436 C.2        1 UNL1     0.0882
     62 H         4.690768   2.733974   0.577722 H        1 UNL1     0.0365
     63 H         6.336702   3.610225   -0.254934 H        1 UNL1     0.0576
     64 H         8.3427   1.492005   -1.247855 H        1 UNL1     0.0615
     65 H         8.274647   4.609402   -1.435092 H        1 UNL1     0.0622
     66 H         -1.430169   5.328817   0.510217 H        1 UNL1     0.0645
     67 H         -1.856309   3.631146   -0.688334 H        1 UNL1     0.0362
     68 H         -2.537633   2.497206   1.062652 H        1 UNL1     0.0741
     69 H         -1.195557   0.518437   2.207071 H        1 UNL1     0.0359
     70 H         0.909092   0.724049   2.93349 H        1 UNL1     0.0600
     71 H         1.800079   -0.405174   1.310003 H        1 UNL1     0.0348
     72 H         3.357773   1.467126   1.298559 H        1 UNL1     0.0602
     73 H         0.761081   5.409257   -0.447333 H        1 UNL1     0.0628
     74 H         1.539413   5.436352   2.528249 H        1 UNL1     0.1022
     75 H         10.935822   2.25347   -3.455982 H        1 UNL1     0.0279
     76 H         10.809135   3.468328   -4.664853 H        1 UNL1     0.0279
     77 H         11.91556   3.644849   -3.2436 H        1 UNL1     0.0279
     78 H         9.063842   4.807651   -5.022656 H        1 UNL1     0.1553
     79 H         7.785672   3.335539   -4.66855 H        1 UNL1     0.1484
     80 H         4.036531   2.731667   -4.805576 H        1 UNL1     0.0317
     81 H         4.770721   4.259584   -5.270722 H        1 UNL1     0.0317
     82 H         6.682853   3.070654   -6.377023 H        1 UNL1     0.0428
     83 H         5.126962   2.594225   -7.020391 H        1 UNL1     0.0428
     84 H         6.907324   -0.042365   -4.195175 H        1 UNL1     0.0428
     85 H         7.816655   1.368882   -4.608237 H        1 UNL1     0.0428
     86 H         6.524811   1.4404   -2.474959 H        1 UNL1     0.0317
     87 H         5.028771   1.212887   -3.257552 H        1 UNL1     0.0317
     88 H         7.263139   0.883794   -7.380653 H        1 UNL1     0.0429
     89 H         6.900263   -0.603973   -6.502527 H        1 UNL1     0.0429
     90 H         4.358792   0.210941   -7.305791 H        1 UNL1     0.0308
     91 H         6.29989   1.034002   -9.543987 H        1 UNL1     0.0233
     92 H         4.531816   0.884421   -9.708411 H        1 UNL1     0.0233
     93 H         5.220588   2.123529   -8.681374 H        1 UNL1     0.0233
     94 H         4.64631   -1.47878   -9.155365 H        1 UNL1     0.0233
     95 H         6.344473   -1.602889   -8.670423 H        1 UNL1     0.0233
     96 H         5.058465   -2.041652   -7.522528 H        1 UNL1     0.0233
     97 H         4.13456   10.522753   -0.097817 H        1 UNL1     0.0280
     98 H         5.744307   11.13936   -0.354137 H        1 UNL1     0.0280
     99 H         4.56872   11.140614   -1.702367 H        1 UNL1     0.0280
     100 H         6.684487   10.723998   -3.012147 H        1 UNL1     0.2922
     101 H         4.701184   0.886429   2.433548 H        1 UNL1     0.0236
     102 H         6.014514   2.125707   2.507152 H        1 UNL1     0.0236
     103 H         6.320186   0.517836   1.926796 H        1 UNL1     0.0236
     104 H         4.331901   -0.55803   1.273799 H        1 UNL1     0.2098
     105 H         0.708644   1.282287   -0.929705 H        1 UNL1     0.0234
     106 H         1.291045   -0.404421   -1.012892 H        1 UNL1     0.0234
     107 H         0.0   -0.0   0.0 H        1 UNL1     0.0234
     108 H         1.213062   3.256053   1.743273 H        1 UNL1     0.2098
     109 H         1.080071   3.060937   -0.850692 H        1 UNL1     0.0234
     110 H         -0.172125   2.32715   -1.902531 H        1 UNL1     0.0234
     111 H         0.065664   4.039501   -1.890088 H        1 UNL1     0.0234
     112 H         -3.589947   -1.512227   1.459803 H        1 UNL1     0.0342
     113 H         -3.229832   0.124528   2.115233 H        1 UNL1     0.0342
     114 H         -4.424483   -0.080468   0.831194 H        1 UNL1     0.0342
     115 H         -2.654708   1.949758   3.311637 H        1 UNL1     0.0234
     116 H         -1.148352   1.918509   4.233972 H        1 UNL1     0.0234
     117 H         -1.624021   3.30014   3.224773 H        1 UNL1     0.0234
     118 H         0.940374   7.682514   -0.770913 H        1 UNL1     0.0309
     119 H         2.210625   7.78675   -2.029348 H        1 UNL1     0.0309
     120 H         1.454693   6.265318   -1.609865 H        1 UNL1     0.0309
     121 H         -0.301333   6.27472   2.814653 H        1 UNL1     0.0524
     122 H         -2.042193   6.060219   2.590485 H        1 UNL1     0.0524
     123 H         -1.23979   5.333448   4.005298 H        1 UNL1     0.0524
@<TRIPOS>BOND
     1     1     2    1
     2     1    42    1
     3     2     3    2
     4     3     4    1
     5     4     5    2
     6     5     7    1
     7     6    75    1
     8     6    76    1
     9     6    77    1
    10     7     9   am
    11     9    10    1
    12    10    11    2
    13    10    43    1
    14    11    14    1
    15    11    15    1
    16    12    13   ar
    17    12    27   ar
    18    12    43    1
    19    13    14    1
    20    13    30   ar
    21    14    17    2
    22    15    16    1
    23    16    17    1
    24    16    18    1
    25    16    22    1
    26    18    19    1
    27    19    20    1
    28    20    21    1
    29    21    22    1
    30    23    24    1
    31    23    88    1
    32    23    89    1
    33    24    25    1
    34    24    26    1
    35    24    90    1
    36    25    91    1
    37    25    92    1
    38    25    93    1
    39    26    94    1
    40    26    95    1
    41    26    96    1
    42    27    28   ar
    43    28    29   ar
    44    29    30   ar
    45    29    31    1
    46    30    33    1
    47    31    32    1
    48    32    33    1
    49    32    35    1
    50    34    97    1
    51    34    98    1
    52    34    99    1
    53    35    61    1
    54    36    37    1
    55    36    60    1
    56    37    38    1
    57    38    39    1
    58    39    40    1
    59    40    41    1
    60    41    42    1
    61    45   100    1
    62    47   101    1
    63    47   102    1
    64    47   103    1
    65    48   104    1
    66    49   105    1
    67    49   106    1
    68    49   107    1
    69    50   108    1
    70    51    59    1
    71    52   109    1
    72    52   110    1
    73    52   111    1
    74    53    54    1
    75    54    55    2
    76    54    56    1
    77    56   112    1
    78    56   113    1
    79    56   114    1
    80    57   115    1
    81    57   116    1
    82    57   117    1
    83    58   118    1
    84    58   119    1
    85    58   120    1
    86    59   121    1
    87    59   122    1
    88    59   123    1
    89    60    61    2
    90     1    47    1
    91     1    62    1
    92     2    63    1
    93     3    64    1
    94     4    65    1
    95     5     6    1
    96     7     8    2
    97     9    78    1
    98    15    79    1
    99    18    80    1
   100    18    81    1
   101    19    82    1
   102    19    83    1
   103    20    23    1
   104    21    84    1
   105    21    85    1
   106    22    86    1
   107    22    87    1
   108    27    45    1
   109    28    34    1
   110    32    58    1
   111    33    46    2
   112    36    51    1
   113    36    66    1
   114    37    52    1
   115    37    67    1
   116    38    53    1
   117    38    68    1
   118    42    48    1
   119    42    72    1
   120    43    44    2
   121    60    73    1
   122    61    74    1
   123    39    69    1
   124    39    57    1
   125    40    70    1
   126    40    50    1
   127    41    71    1
   128    41    49    1
