@<TRIPOS>MOLECULE
*****
 123 128 0 0 0
SMALL
GASTEIGER

@<TRIPOS>ATOM
     1 C         5.168151   1.747127   0.486863 C.3        1 UNL1     0.0009
     2 C         6.604343   2.552842   -0.364731 C.2        1 UNL1     -0.0787
     3 C         7.885604   2.454297   -1.031595 C.2        1 UNL1     -0.0649
     4 C         8.762775   3.689197   -1.787868 C.2        1 UNL1     -0.0542
     5 C         9.782066   3.981586   -2.727353 C.2        1 UNL1     0.0115
     6 C         10.909304   3.355846   -3.594018 C.3        1 UNL1     -0.0348
     7 C         9.877338   5.464855   -3.33384 C.2        1 UNL1     0.2441
     8 O         10.701814   6.286216   -2.956836 O.2        1 UNL1     -0.2702
     9 N         9.126151   5.67214   -4.503841 N.am        1 UNL1     -0.2772
     10 C         7.843835   6.059204   -4.188929 C.2        1 UNL1     0.1049
     11 C         6.998   5.088037   -3.896317 C.2        1 UNL1     0.0801
     12 C         6.547194   7.666167   -2.776936 C.ar        1 UNL1     0.0753
     13 C         5.788174   6.53846   -2.328856 C.ar        1 UNL1     0.0305
     14 C         5.904125   5.232767   -2.974435 C.2        1 UNL1     0.0924
     15 N         7.12006   3.759032   -4.055605 N.pl3        1 UNL1     -0.3170
     16 C         5.850289   3.160241   -3.740352 C.3        1 UNL1     0.1275
     17 N         5.215055   4.115609   -2.759804 N.2        1 UNL1     -0.2557
     18 C         4.996347   3.219668   -5.003266 C.3        1 UNL1     0.0016
     19 C         5.750017   2.535415   -6.132588 C.3        1 UNL1     0.0026
     20 N         6.020063   1.157202   -5.747062 N.3        1 UNL1     -0.3018
     21 C         6.784461   0.996481   -4.50842 C.3        1 UNL1     0.0026
     22 C         6.006922   1.68717   -3.386691 C.3        1 UNL1     0.0016
     23 C         6.463333   0.3376   -6.857201 C.3        1 UNL1     0.0012
     24 C         5.306944   0.088556   -7.838271 C.3        1 UNL1     -0.0339
     25 C         5.381792   1.035027   -9.04767 C.3        1 UNL1     -0.0615
     26 C         5.293416   -1.368025   -8.26835 C.3        1 UNL1     -0.0615
     27 C         6.34341   8.933889   -2.237055 C.ar        1 UNL1     0.1347
     28 C         5.385284   9.203675   -1.27619 C.ar        1 UNL1     0.0342
     29 C         4.68377   8.069415   -0.815215 C.ar        1 UNL1     0.1435
     30 C         4.902362   6.787353   -1.320936 C.ar        1 UNL1     0.0774
     31 O         3.643569   8.183254   0.039202 O.3        1 UNL1     -0.4436
     32 C         2.921376   6.950672   -0.102401 C.3        1 UNL1     0.3143
     33 C         3.933889   5.957281   -0.635511 C.2        1 UNL1     0.2504
     34 C         4.939267   10.569891   -0.835031 C.3        1 UNL1     -0.0327
     35 O         2.561768   6.514001   1.214129 O.2        1 UNL1     -0.4528
     36 C         -0.682239   4.582865   0.820149 C.3        1 UNL1     0.0854
     37 C         -0.98874   3.322433   -0.077009 C.3        1 UNL1     0.0236
     38 C         -1.588994   2.06153   0.711383 C.3        1 UNL1     0.1131
     39 C         -0.862248   1.530286   2.012109 C.3        1 UNL1     0.0200
     40 C         0.798934   1.384213   2.051792 C.3        1 UNL1     0.0661
     41 C         1.757021   0.615151   0.882081 C.3        1 UNL1     0.0091
     42 C         3.46422   0.977202   0.31658 C.3        1 UNL1     0.0661
     43 C         7.496173   7.458232   -3.898748 C.2        1 UNL1     0.2131
     44 O         7.895701   8.356226   -4.617581 O.2        1 UNL1     -0.2851
     45 O         7.155596   9.968766   -2.696206 O.3        1 UNL1     -0.5056
     46 O         3.949613   4.753734   -0.504818 O.2        1 UNL1     -0.2836
     47 C         5.565658   1.317442   1.924688 C.3        1 UNL1     -0.0566
     48 O         3.912409   -0.43405   0.397886 O.3        1 UNL1     -0.3909
     49 C         0.921655   0.382896   -0.357159 C.3        1 UNL1     -0.0577
     50 O         1.399869   2.601863   2.44413 O.3        1 UNL1     -0.3910
     51 O         -0.805147   4.393152   2.211671 O.3        1 UNL1     -0.3753
     52 C         0.054636   3.161695   -1.230474 C.3        1 UNL1     -0.0564
     53 O         -2.192729   1.022787   -0.187975 O.3        1 UNL1     -0.4608
     54 C         -2.427251   -0.283908   0.151842 C.2        1 UNL1     0.3042
     55 O         -1.858862   -1.283196   -0.286561 O.2        1 UNL1     -0.2512
     56 C         -3.466366   -0.44928   1.224039 C.3        1 UNL1     0.0332
     57 C         -1.581937   2.199441   3.274034 C.3        1 UNL1     -0.0567
     58 C         1.845291   7.196162   -1.185593 C.3        1 UNL1     0.0210
     59 C         -1.117308   5.572217   2.952094 C.3        1 UNL1     0.0372
     60 C         0.64675   5.211537   0.588378 C.2        1 UNL1     -0.0208
     61 C         1.560601   5.646434   1.45699 C.2        1 UNL1     0.0882
     62 H         4.692623   2.731447   0.574607 H        1 UNL1     0.0365
     63 H         6.338526   3.606721   -0.259135 H        1 UNL1     0.0576
     64 H         8.342751   1.487313   -1.253101 H        1 UNL1     0.0615
     65 H         8.276296   4.604732   -1.440567 H        1 UNL1     0.0622
     66 H         -1.426929   5.329646   0.510631 H        1 UNL1     0.0645
     67 H         -1.854736   3.632106   -0.687511 H        1 UNL1     0.0362
     68 H         -2.535609   2.498691   1.063991 H        1 UNL1     0.0741
     69 H         -1.193918   0.519285   2.207758 H        1 UNL1     0.0359
     70 H         0.911289   0.723804   2.932868 H        1 UNL1     0.0600
     71 H         1.80066   -0.406049   1.308934 H        1 UNL1     0.0348
     72 H         3.359374   1.465393   1.296372 H        1 UNL1     0.0602
     73 H         0.763778   5.408799   -0.448271 H        1 UNL1     0.0628
     74 H         1.543949   5.435724   2.526832 H        1 UNL1     0.1022
     75 H         10.934936   2.247162   -3.462884 H        1 UNL1     0.0279
     76 H         10.808175   3.461985   -4.671783 H        1 UNL1     0.0279
     77 H         11.915569   3.638021   -3.251224 H        1 UNL1     0.0279
     78 H         9.0634   4.802235   -5.028632 H        1 UNL1     0.1553
     79 H         7.784638   3.330856   -4.673615 H        1 UNL1     0.1484
     80 H         4.035083   2.729033   -4.808289 H        1 UNL1     0.0317
     81 H         4.769827   4.256506   -5.274017 H        1 UNL1     0.0317
     82 H         6.680626   3.06643   -6.381387 H        1 UNL1     0.0428
     83 H         5.12408   2.590799   -7.023759 H        1 UNL1     0.0428
     84 H         6.904725   -0.046523   -4.199407 H        1 UNL1     0.0428
     85 H         7.814578   1.364188   -4.613149 H        1 UNL1     0.0428
     86 H         6.524082   1.4366   -2.479085 H        1 UNL1     0.0317
     87 H         5.027437   1.209842   -3.260741 H        1 UNL1     0.0317
     88 H         7.259095   0.879164   -7.385183 H        1 UNL1     0.0429
     89 H         6.89594   -0.608327   -6.506705 H        1 UNL1     0.0429
     90 H         4.354774   0.257095   -7.321376 H        1 UNL1     0.0308
     91 H         6.336308   0.934485   -9.572925 H        1 UNL1     0.0233
     92 H         4.565503   0.835112   -9.745749 H        1 UNL1     0.0233
     93 H         5.286642   2.08899   -8.759671 H        1 UNL1     0.0233
     94 H         4.600531   -1.50838   -9.105038 H        1 UNL1     0.0233
     95 H         6.290534   -1.668254   -8.602386 H        1 UNL1     0.0233
     96 H         4.98341   -2.023066   -7.449335 H        1 UNL1     0.0233
     97 H         4.140279   10.520471   -0.101268 H        1 UNL1     0.0280
     98 H         5.750207   11.136172   -0.358629 H        1 UNL1     0.0280
     99 H         4.573794   11.137955   -1.706138 H        1 UNL1     0.0280
     100 H         6.688528   10.720063   -3.017179 H        1 UNL1     0.2922
     101 H         4.700027   0.895474   2.434866 H        1 UNL1     0.0236
     102 H         6.028307   2.119236   2.4992 H        1 UNL1     0.0236
     103 H         6.31247   0.505985   1.922858 H        1 UNL1     0.0236
     104 H         4.327311   -0.561781   1.273392 H        1 UNL1     0.2098
     105 H         0.708778   1.281817   -0.930251 H        1 UNL1     0.0234
     106 H         1.290201   -0.405218   -1.013648 H        1 UNL1     0.0234
     107 H         0.0   -0.0   0.0 H        1 UNL1     0.0234
     108 H         1.215919   3.255537   1.742246 H        1 UNL1     0.2098
     109 H         1.08123   3.060269   -0.85162 H        1 UNL1     0.0234
     110 H         -0.172013   2.32708   -1.902628 H        1 UNL1     0.0234
     111 H         0.066723   4.039301   -1.890479 H        1 UNL1     0.0234
     112 H         -3.589881   -1.510129   1.462136 H        1 UNL1     0.0342
     113 H         -3.228465   0.126485   2.117203 H        1 UNL1     0.0342
     114 H         -4.424015   -0.077966   0.833915 H        1 UNL1     0.0342
     115 H         -2.651605   1.951503   3.313095 H        1 UNL1     0.0234
     116 H         -1.144701   1.919506   4.234508 H        1 UNL1     0.0234
     117 H         -1.62023   3.301311   3.225481 H        1 UNL1     0.0234
     118 H         0.944121   7.681929   -0.772157 H        1 UNL1     0.0309
     119 H         2.213657   7.785359   -2.031381 H        1 UNL1     0.0309
     120 H         1.457147   6.264378   -1.611302 H        1 UNL1     0.0309
     121 H         -0.279149   6.260263   2.845136 H        1 UNL1     0.0524
     122 H         -2.016391   6.081943   2.567562 H        1 UNL1     0.0524
     123 H         -1.270962   5.3286   3.999536 H        1 UNL1     0.0524
@<TRIPOS>BOND
     1     1     2    1
     2     1    42    1
     3     2     3    2
     4     3     4    1
     5     4     5    2
     6     5     7    1
     7     6    75    1
     8     6    76    1
     9     6    77    1
    10     7     9   am
    11     9    10    1
    12    10    11    2
    13    10    43    1
    14    11    14    1
    15    11    15    1
    16    12    13   ar
    17    12    27   ar
    18    12    43    1
    19    13    14    1
    20    13    30   ar
    21    14    17    2
    22    15    16    1
    23    16    17    1
    24    16    18    1
    25    16    22    1
    26    18    19    1
    27    19    20    1
    28    20    21    1
    29    21    22    1
    30    23    24    1
    31    23    88    1
    32    23    89    1
    33    24    25    1
    34    24    26    1
    35    24    90    1
    36    25    91    1
    37    25    92    1
    38    25    93    1
    39    26    94    1
    40    26    95    1
    41    26    96    1
    42    27    28   ar
    43    28    29   ar
    44    29    30   ar
    45    29    31    1
    46    30    33    1
    47    31    32    1
    48    32    33    1
    49    32    35    1
    50    34    97    1
    51    34    98    1
    52    34    99    1
    53    35    61    1
    54    36    37    1
    55    36    60    1
    56    37    38    1
    57    38    39    1
    58    39    40    1
    59    40    41    1
    60    41    42    1
    61    45   100    1
    62    47   101    1
    63    47   102    1
    64    47   103    1
    65    48   104    1
    66    49   105    1
    67    49   106    1
    68    49   107    1
    69    50   108    1
    70    51    59    1
    71    52   109    1
    72    52   110    1
    73    52   111    1
    74    53    54    1
    75    54    55    2
    76    54    56    1
    77    56   112    1
    78    56   113    1
    79    56   114    1
    80    57   115    1
    81    57   116    1
    82    57   117    1
    83    58   118    1
    84    58   119    1
    85    58   120    1
    86    59   121    1
    87    59   122    1
    88    59   123    1
    89    60    61    2
    90     1    47    1
    91     1    62    1
    92     2    63    1
    93     3    64    1
    94     4    65    1
    95     5     6    1
    96     7     8    2
    97     9    78    1
    98    15    79    1
    99    18    80    1
   100    18    81    1
   101    19    82    1
   102    19    83    1
   103    20    23    1
   104    21    84    1
   105    21    85    1
   106    22    86    1
   107    22    87    1
   108    27    45    1
   109    28    34    1
   110    32    58    1
   111    33    46    2
   112    36    51    1
   113    36    66    1
   114    37    52    1
   115    37    67    1
   116    38    53    1
   117    38    68    1
   118    42    48    1
   119    42    72    1
   120    43    44    2
   121    60    73    1
   122    61    74    1
   123    39    69    1
   124    39    57    1
   125    40    70    1
   126    40    50    1
   127    41    71    1
   128    41    49    1
