@<TRIPOS>MOLECULE
*****
 123 128 0 0 0
SMALL
GASTEIGER

@<TRIPOS>ATOM
     1 C         -0.139318   4.037302   -1.285217 C.3        1 UNL1     0.0009
     2 C         -1.546841   4.91206   -2.116309 C.2        1 UNL1     -0.0787
     3 C         -2.149123   5.473691   -3.307054 C.2        1 UNL1     -0.0649
     4 C         -3.703753   6.121314   -3.480453 C.2        1 UNL1     -0.0542
     5 C         -4.723826   6.460783   -4.403106 C.2        1 UNL1     0.0115
     6 C         -5.050219   6.618489   -5.913709 C.3        1 UNL1     -0.0348
     7 C         -6.218551   6.683275   -3.861548 C.2        1 UNL1     0.2441
     8 O         -6.70909   7.79202   -3.698514 O.2        1 UNL1     -0.2702
     9 N         -7.014116   5.524591   -3.835459 N.am        1 UNL1     -0.2772
     10 C         -6.855041   4.859658   -2.641356 C.2        1 UNL1     0.1049
     11 C         -5.805933   4.062127   -2.55453 C.2        1 UNL1     0.0801
     12 C         -6.844972   5.2062   -0.164031 C.ar        1 UNL1     0.0753
     13 C         -5.594471   4.510014   -0.150571 C.ar        1 UNL1     0.0305
     14 C         -5.100597   3.801251   -1.329042 C.2        1 UNL1     0.0924
     15 N         -4.972139   3.624089   -3.513404 N.pl3        1 UNL1     -0.3170
     16 C         -4.101623   2.641908   -2.923679 C.3        1 UNL1     0.1275
     17 N         -4.025844   3.030054   -1.467203 N.2        1 UNL1     -0.2557
     18 C         -4.833743   1.304093   -2.967877 C.3        1 UNL1     0.0016
     19 C         -5.22607   1.011728   -4.407388 C.3        1 UNL1     0.0026
     20 N         -4.019977   0.976173   -5.222926 N.3        1 UNL1     -0.3018
     21 C         -3.214719   2.198949   -5.195607 C.3        1 UNL1     0.0026
     22 C         -2.827843   2.471106   -3.740906 C.3        1 UNL1     0.0016
     23 C         -4.246065   0.414774   -6.539877 C.3        1 UNL1     0.0012
     24 C         -4.513003   -1.095561   -6.442983 C.3        1 UNL1     -0.0339
     25 C         -3.949096   -1.845583   -7.660987 C.3        1 UNL1     -0.0615
     26 C         -3.951656   -1.641182   -5.141458 C.3        1 UNL1     -0.0615
     27 C         -7.366115   5.776368   0.995036 C.ar        1 UNL1     0.1347
     28 C         -6.74957   5.681667   2.229926 C.ar        1 UNL1     0.0342
     29 C         -5.496014   5.034097   2.209574 C.ar        1 UNL1     0.1435
     30 C         -4.94437   4.489618   1.049207 C.ar        1 UNL1     0.0774
     31 O         -4.822889   4.765615   3.349673 O.3        1 UNL1     -0.4436
     32 C         -3.896132   3.730473   2.988459 C.3        1 UNL1     0.3143
     33 C         -3.713612   3.867242   1.490396 C.2        1 UNL1     0.2504
     34 C         -7.364485   6.045556   3.552638 C.3        1 UNL1     -0.0327
     35 O         -2.638275   4.054803   3.593322 O.2        1 UNL1     -0.4528
     36 C         -0.92329   0.737055   4.271158 C.3        1 UNL1     0.0854
     37 C         -0.554326   -0.418127   3.262723 C.3        1 UNL1     0.0236
     38 C         0.991017   -0.846681   3.262014 C.3        1 UNL1     0.1131
     39 C         2.112536   0.25968   3.11908 C.3        1 UNL1     0.0200
     40 C         1.947671   1.49098   2.005905 C.3        1 UNL1     0.0661
     41 C         1.553248   1.302476   0.366848 C.3        1 UNL1     0.0091
     42 C         0.60904   2.396335   -0.763349 C.3        1 UNL1     0.0661
     43 C         -7.611923   5.223859   -1.43436 C.2        1 UNL1     0.2131
     44 O         -8.812375   5.419295   -1.493144 O.2        1 UNL1     -0.2851
     45 O         -8.566322   6.475779   0.886567 O.3        1 UNL1     -0.5056
     46 O         -2.75831   3.55361   0.815943 O.2        1 UNL1     -0.2836
     47 C         1.058957   5.005333   -1.092769 C.3        1 UNL1     -0.0566
     48 O         1.604411   2.313357   -1.859465 O.3        1 UNL1     -0.3909
     49 C         1.044674   -0.104676   0.146007 C.3        1 UNL1     -0.0577
     50 O         1.220531   2.570576   2.55678 O.3        1 UNL1     -0.3910
     51 O         0.163508   1.364677   4.913337 O.3        1 UNL1     -0.3753
     52 C         -1.39341   -0.331189   1.946163 C.3        1 UNL1     -0.0564
     53 O         1.251227   -2.154569   2.573505 O.3        1 UNL1     -0.4608
     54 C         2.346036   -2.442603   1.801261 C.2        1 UNL1     0.3042
     55 O         3.484401   -1.991491   1.921519 O.2        1 UNL1     -0.2512
     56 C         2.079431   -3.471845   0.73999 C.3        1 UNL1     0.0332
     57 C         2.5981   0.647428   4.592869 C.3        1 UNL1     -0.0567
     58 C         -4.60339   2.387418   3.284293 C.3        1 UNL1     0.0210
     59 C         0.306518   1.047521   6.297109 C.3        1 UNL1     0.0372
     60 C         -1.770374   1.820979   3.703076 C.2        1 UNL1     -0.0208
     61 C         -1.669529   3.146039   3.81618 C.2        1 UNL1     0.0882
     62 H         -0.70815   4.053197   -0.347727 H        1 UNL1     0.0365
     63 H         -2.191611   5.119811   -1.259815 H        1 UNL1     0.0576
     64 H         -1.678709   5.374311   -4.28784 H        1 UNL1     0.0615
     65 H         -4.047839   6.252264   -2.450919 H        1 UNL1     0.0622
     66 H         -1.536888   0.246741   5.040012 H        1 UNL1     0.0645
     67 H         -1.030523   -1.314704   3.696251 H        1 UNL1     0.0362
     68 H         1.078938   -1.219672   4.293842 H        1 UNL1     0.0741
     69 H         3.033906   -0.216475   2.811248 H        1 UNL1     0.0359
     70 H         2.992802   1.853151   1.965985 H        1 UNL1     0.0600
     71 H         2.569002   1.237212   -0.07012 H        1 UNL1     0.0348
     72 H         0.927572   3.030593   0.076632 H        1 UNL1     0.0602
     73 H         -2.625041   1.39124   3.242514 H        1 UNL1     0.0628
     74 H         -0.800953   3.665987   4.221726 H        1 UNL1     0.1022
     75 H         -4.250589   7.203804   -6.428521 H        1 UNL1     0.0279
     76 H         -5.085345   5.703373   -6.500563 H        1 UNL1     0.0279
     77 H         -5.932018   7.250494   -6.094537 H        1 UNL1     0.0279
     78 H         -6.723155   4.893099   -4.578854 H        1 UNL1     0.1553
     79 H         -5.193039   3.637131   -4.492162 H        1 UNL1     0.1484
     80 H         -4.176832   0.52357   -2.565363 H        1 UNL1     0.0317
     81 H         -5.724064   1.324017   -2.330239 H        1 UNL1     0.0317
     82 H         -5.942598   1.752133   -4.792486 H        1 UNL1     0.0428
     83 H         -5.748246   0.054486   -4.415755 H        1 UNL1     0.0428
     84 H         -2.275433   2.118098   -5.751498 H        1 UNL1     0.0428
     85 H         -3.734824   3.041642   -5.671712 H        1 UNL1     0.0428
     86 H         -2.134009   3.290538   -3.774268 H        1 UNL1     0.0317
     87 H         -2.223315   1.642334   -3.352605 H        1 UNL1     0.0317
     88 H         -5.132207   0.899398   -6.970208 H        1 UNL1     0.0429
     89 H         -3.405231   0.625897   -7.213078 H        1 UNL1     0.0429
     90 H         -5.59504   -1.266892   -6.39765 H        1 UNL1     0.0308
     91 H         -2.930835   -1.519123   -7.892656 H        1 UNL1     0.0233
     92 H         -3.948627   -2.923756   -7.484491 H        1 UNL1     0.0233
     93 H         -4.548433   -1.683999   -8.565155 H        1 UNL1     0.0233
     94 H         -3.782948   -2.72019   -5.225805 H        1 UNL1     0.0233
     95 H         -2.991756   -1.166157   -4.920313 H        1 UNL1     0.0233
     96 H         -4.63467   -1.462453   -4.306284 H        1 UNL1     0.0233
     97 H         -7.384975   5.203398   4.237898 H        1 UNL1     0.0280
     98 H         -6.80331   6.837208   4.066083 H        1 UNL1     0.0280
     99 H         -8.400176   6.388983   3.396124 H        1 UNL1     0.0280
     100 H         -8.591446   7.104062   0.186388 H        1 UNL1     0.2922
     101 H         1.118896   5.313269   -0.049103 H        1 UNL1     0.0236
     102 H         1.033963   5.858336   -1.770076 H        1 UNL1     0.0236
     103 H         2.025132   4.513786   -1.295453 H        1 UNL1     0.0236
     104 H         2.276082   1.653222   -1.598598 H        1 UNL1     0.2098
     105 H         1.45543   -0.598167   -0.731238 H        1 UNL1     0.0234
     106 H         1.118445   -0.757292   1.015821 H        1 UNL1     0.0234
     107 H         -0.0   0.0   0.0 H        1 UNL1     0.0234
     108 H         1.184385   3.272182   1.878393 H        1 UNL1     0.2098
     109 H         -2.472438   -0.421663   2.133846 H        1 UNL1     0.0234
     110 H         -1.196815   0.579265   1.369822 H        1 UNL1     0.0234
     111 H         -1.143164   -1.144727   1.252276 H        1 UNL1     0.0234
     112 H         1.402018   -3.061198   -0.014879 H        1 UNL1     0.0342
     113 H         2.998222   -3.836722   0.283337 H        1 UNL1     0.0342
     114 H         1.57879   -4.328844   1.211236 H        1 UNL1     0.0342
     115 H         3.66883   0.89248   4.618845 H        1 UNL1     0.0234
     116 H         2.057935   1.488922   5.031228 H        1 UNL1     0.0234
     117 H         2.554656   -0.193773   5.305915 H        1 UNL1     0.0234
     118 H         -4.148784   1.859269   4.14068 H        1 UNL1     0.0309
     119 H         -5.678038   2.497549   3.460944 H        1 UNL1     0.0309
     120 H         -4.503119   1.669649   2.462794 H        1 UNL1     0.0309
     121 H         0.775116   0.066022   6.363676 H        1 UNL1     0.0524
     122 H         0.958502   1.76316   6.825137 H        1 UNL1     0.0524
     123 H         -0.665634   1.032386   6.781655 H        1 UNL1     0.0524
@<TRIPOS>BOND
     1     1     2    1
     2     1    42    1
     3     2     3    2
     4     3     4    1
     5     4     5    2
     6     5     7    1
     7     6    75    1
     8     6    76    1
     9     6    77    1
    10     7     9   am
    11     9    10    1
    12    10    11    2
    13    10    43    1
    14    11    14    1
    15    11    15    1
    16    12    13   ar
    17    12    27   ar
    18    12    43    1
    19    13    14    1
    20    13    30   ar
    21    14    17    2
    22    15    16    1
    23    16    17    1
    24    16    18    1
    25    16    22    1
    26    18    19    1
    27    19    20    1
    28    20    21    1
    29    21    22    1
    30    23    24    1
    31    23    88    1
    32    23    89    1
    33    24    25    1
    34    24    26    1
    35    24    90    1
    36    25    91    1
    37    25    92    1
    38    25    93    1
    39    26    94    1
    40    26    95    1
    41    26    96    1
    42    27    28   ar
    43    28    29   ar
    44    29    30   ar
    45    29    31    1
    46    30    33    1
    47    31    32    1
    48    32    33    1
    49    32    35    1
    50    34    97    1
    51    34    98    1
    52    34    99    1
    53    35    61    1
    54    36    37    1
    55    36    60    1
    56    37    38    1
    57    38    39    1
    58    39    40    1
    59    40    41    1
    60    41    42    1
    61    45   100    1
    62    47   101    1
    63    47   102    1
    64    47   103    1
    65    48   104    1
    66    49   105    1
    67    49   106    1
    68    49   107    1
    69    50   108    1
    70    51    59    1
    71    52   109    1
    72    52   110    1
    73    52   111    1
    74    53    54    1
    75    54    55    2
    76    54    56    1
    77    56   112    1
    78    56   113    1
    79    56   114    1
    80    57   115    1
    81    57   116    1
    82    57   117    1
    83    58   118    1
    84    58   119    1
    85    58   120    1
    86    59   121    1
    87    59   122    1
    88    59   123    1
    89    60    61    2
    90     1    47    1
    91     1    62    1
    92     2    63    1
    93     3    64    1
    94     4    65    1
    95     5     6    1
    96     7     8    2
    97     9    78    1
    98    15    79    1
    99    18    80    1
   100    18    81    1
   101    19    82    1
   102    19    83    1
   103    20    23    1
   104    21    84    1
   105    21    85    1
   106    22    86    1
   107    22    87    1
   108    27    45    1
   109    28    34    1
   110    32    58    1
   111    33    46    2
   112    36    51    1
   113    36    66    1
   114    37    52    1
   115    37    67    1
   116    38    53    1
   117    38    68    1
   118    42    48    1
   119    42    72    1
   120    43    44    2
   121    60    73    1
   122    61    74    1
   123    39    69    1
   124    39    57    1
   125    40    70    1
   126    40    50    1
   127    41    71    1
   128    41    49    1
