@<TRIPOS>MOLECULE
*****
 123 128 0 0 0
SMALL
GASTEIGER

@<TRIPOS>ATOM
     1 C         -1.793706   2.891747   2.440334 C.3        1 UNL1     0.0009
     2 C         -3.105066   4.11147   1.961119 C.2        1 UNL1     -0.0787
     3 C         -3.497011   5.458081   1.601862 C.2        1 UNL1     -0.0649
     4 C         -5.020471   5.999375   1.099443 C.2        1 UNL1     -0.0542
     5 C         -5.722736   7.028892   0.42565 C.2        1 UNL1     0.0115
     6 C         -5.589423   8.4543   -0.177478 C.3        1 UNL1     -0.0348
     7 C         -7.2103   6.737405   -0.102724 C.2        1 UNL1     0.2441
     8 O         -8.211855   7.137567   0.474582 O.2        1 UNL1     -0.2702
     9 N         -7.280826   6.218352   -1.40724 N.am        1 UNL1     -0.2772
     10 C         -7.195817   4.845215   -1.382947 C.2        1 UNL1     0.1049
     11 C         -5.977947   4.338527   -1.31749 C.2        1 UNL1     0.0801
     12 C         -8.140797   2.818879   -0.261203 C.ar        1 UNL1     0.0753
     13 C         -6.788052   2.413039   -0.028861 C.ar        1 UNL1     0.0305
     14 C         -5.664217   3.095731   -0.666024 C.2        1 UNL1     0.0924
     15 N         -4.784412   4.934674   -1.480617 N.pl3        1 UNL1     -0.3170
     16 C         -3.776566   3.907785   -1.479803 C.3        1 UNL1     0.1275
     17 N         -4.36801   2.798547   -0.644633 N.2        1 UNL1     -0.2557
     18 C         -3.684198   3.363759   -2.902198 C.3        1 UNL1     0.0016
     19 C         -3.401362   4.520237   -3.847794 C.3        1 UNL1     0.0026
     20 N         -2.153893   5.156799   -3.448247 N.3        1 UNL1     -0.3018
     21 C         -2.124414   5.658038   -2.072653 C.3        1 UNL1     0.0026
     22 C         -2.406322   4.479031   -1.139719 C.3        1 UNL1     0.0016
     23 C         -1.640976   6.070416   -4.449678 C.3        1 UNL1     0.0012
     24 C         -2.252786   7.468329   -4.267238 C.3        1 UNL1     -0.0339
     25 C         -2.450705   8.176194   -5.617724 C.3        1 UNL1     -0.0615
     26 C         -3.55491   7.369742   -3.491653 C.3        1 UNL1     -0.0615
     27 C         -9.211208   2.090221   0.252019 C.ar        1 UNL1     0.1347
     28 C         -9.055175   0.921521   0.97579 C.ar        1 UNL1     0.0342
     29 C         -7.713635   0.568031   1.233629 C.ar        1 UNL1     0.1435
     30 C         -6.631057   1.308119   0.756645 C.ar        1 UNL1     0.0774
     31 O         -7.395207   -0.60113   1.83085 O.3        1 UNL1     -0.4436
     32 C         -6.016176   -0.816207   1.49486 C.3        1 UNL1     0.3143
     33 C         -5.465789   0.560126   1.180227 C.2        1 UNL1     0.2504
     34 C         -10.149577   -0.042587   1.340313 C.3        1 UNL1     -0.0327
     35 O         -5.354037   -1.268872   2.68226 O.2        1 UNL1     -0.4528
     36 C         -2.524606   -3.509247   1.506195 C.3        1 UNL1     0.0854
     37 C         -1.331797   -3.177872   0.528996 C.3        1 UNL1     0.0236
     38 C         0.129414   -3.462796   1.125171 C.3        1 UNL1     0.1131
     39 C         0.52584   -2.883057   2.542569 C.3        1 UNL1     0.0200
     40 C         0.127434   -1.317017   2.956368 C.3        1 UNL1     0.0661
     41 C         0.419448   0.064183   2.015823 C.3        1 UNL1     0.0091
     42 C         -0.533574   1.62443   1.86489 C.3        1 UNL1     0.0661
     43 C         -8.368481   3.9913   -1.142026 C.2        1 UNL1     0.2131
     44 O         -9.416148   4.200935   -1.726135 O.2        1 UNL1     -0.2851
     45 O         -10.495087   2.578661   0.018525 O.3        1 UNL1     -0.5056
     46 O         -4.325975   0.956398   1.278445 O.2        1 UNL1     -0.2836
     47 C         -1.371745   3.106615   3.918767 C.3        1 UNL1     -0.0566
     48 O         0.655935   2.498312   2.008124 O.3        1 UNL1     -0.3909
     49 C         0.782435   -0.368606   0.612816 C.3        1 UNL1     -0.0577
     50 O         -1.172494   -1.259754   3.508302 O.3        1 UNL1     -0.3910
     51 O         -2.163892   -3.843974   2.827284 O.3        1 UNL1     -0.3753
     52 C         -1.637767   -1.92833   -0.359812 C.3        1 UNL1     -0.0564
     53 O         1.210159   -3.479052   0.083992 O.3        1 UNL1     -0.4608
     54 C         2.401501   -4.148708   0.184962 C.2        1 UNL1     0.3042
     55 O         3.505586   -3.673319   0.447334 O.2        1 UNL1     -0.2512
     56 C         2.274157   -5.63396   -0.000848 C.3        1 UNL1     0.0332
     57 C         0.259727   -4.030507   3.624565 C.3        1 UNL1     -0.0567
     58 C         -6.008163   -1.664283   0.201712 C.3        1 UNL1     0.0210
     59 C         -2.325477   -5.221555   3.161986 C.3        1 UNL1     0.0372
     60 C         -3.571246   -2.455337   1.600954 C.2        1 UNL1     -0.0208
     61 C         -4.188186   -1.943064   2.666649 C.2        1 UNL1     0.0882
     62 H         -2.555638   2.102977   2.443833 H        1 UNL1     0.0365
     63 H         -3.998714   3.487872   2.031737 H        1 UNL1     0.0576
     64 H         -2.759094   6.25162   1.464455 H        1 UNL1     0.0615
     65 H         -5.687611   5.170502   1.35119 H        1 UNL1     0.0622
     66 H         -3.016402   -4.382627   1.055209 H        1 UNL1     0.0645
     67 H         -1.404018   -3.952202   -0.254431 H        1 UNL1     0.0362
     68 H         0.062095   -4.552605   1.264123 H        1 UNL1     0.0741
     69 H         1.604161   -2.884373   2.629928 H        1 UNL1     0.0359
     70 H         0.801998   -1.17093   3.821633 H        1 UNL1     0.0600
     71 H         1.409062   0.363204   2.413578 H        1 UNL1     0.0348
     72 H         -0.858217   1.160785   2.807734 H        1 UNL1     0.0602
     73 H         -3.900827   -2.201597   0.624102 H        1 UNL1     0.0628
     74 H         -3.875181   -2.106945   3.698351 H        1 UNL1     0.1022
     75 H         -5.529892   8.404606   -1.291489 H        1 UNL1     0.0279
     76 H         -6.427376   9.129074   -0.017531 H        1 UNL1     0.0279
     77 H         -4.630403   8.932693   0.069751 H        1 UNL1     0.0279
     78 H         -6.496279   6.564181   -1.955843 H        1 UNL1     0.1553
     79 H         -4.661054   5.817198   -1.941992 H        1 UNL1     0.1484
     80 H         -2.890597   2.608033   -2.945104 H        1 UNL1     0.0317
     81 H         -4.613111   2.859461   -3.189346 H        1 UNL1     0.0317
     82 H         -4.228474   5.245192   -3.863173 H        1 UNL1     0.0428
     83 H         -3.341239   4.110345   -4.856469 H        1 UNL1     0.0428
     84 H         -1.151259   6.059037   -1.772684 H        1 UNL1     0.0428
     85 H         -2.815579   6.500132   -1.929525 H        1 UNL1     0.0428
     86 H         -2.245907   4.851994   -0.145158 H        1 UNL1     0.0317
     87 H         -1.626375   3.716266   -1.253604 H        1 UNL1     0.0317
     88 H         -0.553498   6.145076   -4.318872 H        1 UNL1     0.0429
     89 H         -1.817536   5.690209   -5.464096 H        1 UNL1     0.0429
     90 H         -1.581435   8.076385   -3.649363 H        1 UNL1     0.0308
     91 H         -2.908952   7.508435   -6.353394 H        1 UNL1     0.0233
     92 H         -3.076469   9.064042   -5.500446 H        1 UNL1     0.0233
     93 H         -1.504449   8.523895   -6.049624 H        1 UNL1     0.0233
     94 H         -4.177098   8.250347   -3.684663 H        1 UNL1     0.0233
     95 H         -4.113832   6.485572   -3.810731 H        1 UNL1     0.0233
     96 H         -3.374137   7.303573   -2.415125 H        1 UNL1     0.0233
     97 H         -9.866476   -0.686497   2.167637 H        1 UNL1     0.0280
     98 H         -11.06512   0.472175   1.659777 H        1 UNL1     0.0280
     99 H         -10.384961   -0.679243   0.471774 H        1 UNL1     0.0280
     100 H         -10.884978   2.285914   -0.786401 H        1 UNL1     0.2922
     101 H         -0.392813   2.659528   4.090408 H        1 UNL1     0.0236
     102 H         -2.114386   2.75145   4.632438 H        1 UNL1     0.0236
     103 H         -1.238017   4.174314   4.16028 H        1 UNL1     0.0236
     104 H         1.445815   1.92295   2.012504 H        1 UNL1     0.2098
     105 H         1.717468   0.04471   0.243093 H        1 UNL1     0.0234
     106 H         0.753469   -1.445387   0.446591 H        1 UNL1     0.0234
     107 H         0.0   0.0   0.0 H        1 UNL1     0.0234
     108 H         -1.339006   -0.331688   3.762734 H        1 UNL1     0.2098
     109 H         -1.673092   -2.177387   -1.429594 H        1 UNL1     0.0234
     110 H         -2.560125   -1.411744   -0.073214 H        1 UNL1     0.0234
     111 H         -0.859891   -1.159754   -0.25909 H        1 UNL1     0.0234
     112 H         3.150518   -6.019203   -0.53087 H        1 UNL1     0.0342
     113 H         2.129638   -6.154107   0.944881 H        1 UNL1     0.0342
     114 H         1.391052   -5.827138   -0.625326 H        1 UNL1     0.0342
     115 H         0.992657   -3.998503   4.442476 H        1 UNL1     0.0234
     116 H         -0.734934   -3.995392   4.073415 H        1 UNL1     0.0234
     117 H         0.421125   -5.049827   3.233568 H        1 UNL1     0.0234
     118 H         -5.646849   -2.69187   0.382055 H        1 UNL1     0.0309
     119 H         -6.985786   -1.709273   -0.288626 H        1 UNL1     0.0309
     120 H         -5.309716   -1.279131   -0.549244 H        1 UNL1     0.0309
     121 H         -2.472579   -5.283895   4.239868 H        1 UNL1     0.0524
     122 H         -3.210899   -5.668197   2.679723 H        1 UNL1     0.0524
     123 H         -1.443536   -5.78503   2.870831 H        1 UNL1     0.0524
@<TRIPOS>BOND
     1     1     2    1
     2     1    42    1
     3     2     3    2
     4     3     4    1
     5     4     5    2
     6     5     7    1
     7     6    75    1
     8     6    76    1
     9     6    77    1
    10     7     9   am
    11     9    10    1
    12    10    11    2
    13    10    43    1
    14    11    14    1
    15    11    15    1
    16    12    13   ar
    17    12    27   ar
    18    12    43    1
    19    13    14    1
    20    13    30   ar
    21    14    17    2
    22    15    16    1
    23    16    17    1
    24    16    18    1
    25    16    22    1
    26    18    19    1
    27    19    20    1
    28    20    21    1
    29    21    22    1
    30    23    24    1
    31    23    88    1
    32    23    89    1
    33    24    25    1
    34    24    26    1
    35    24    90    1
    36    25    91    1
    37    25    92    1
    38    25    93    1
    39    26    94    1
    40    26    95    1
    41    26    96    1
    42    27    28   ar
    43    28    29   ar
    44    29    30   ar
    45    29    31    1
    46    30    33    1
    47    31    32    1
    48    32    33    1
    49    32    35    1
    50    34    97    1
    51    34    98    1
    52    34    99    1
    53    35    61    1
    54    36    37    1
    55    36    60    1
    56    37    38    1
    57    38    39    1
    58    39    40    1
    59    40    41    1
    60    41    42    1
    61    45   100    1
    62    47   101    1
    63    47   102    1
    64    47   103    1
    65    48   104    1
    66    49   105    1
    67    49   106    1
    68    49   107    1
    69    50   108    1
    70    51    59    1
    71    52   109    1
    72    52   110    1
    73    52   111    1
    74    53    54    1
    75    54    55    2
    76    54    56    1
    77    56   112    1
    78    56   113    1
    79    56   114    1
    80    57   115    1
    81    57   116    1
    82    57   117    1
    83    58   118    1
    84    58   119    1
    85    58   120    1
    86    59   121    1
    87    59   122    1
    88    59   123    1
    89    60    61    2
    90     1    47    1
    91     1    62    1
    92     2    63    1
    93     3    64    1
    94     4    65    1
    95     5     6    1
    96     7     8    2
    97     9    78    1
    98    15    79    1
    99    18    80    1
   100    18    81    1
   101    19    82    1
   102    19    83    1
   103    20    23    1
   104    21    84    1
   105    21    85    1
   106    22    86    1
   107    22    87    1
   108    27    45    1
   109    28    34    1
   110    32    58    1
   111    33    46    2
   112    36    51    1
   113    36    66    1
   114    37    52    1
   115    37    67    1
   116    38    53    1
   117    38    68    1
   118    42    48    1
   119    42    72    1
   120    43    44    2
   121    60    73    1
   122    61    74    1
   123    39    69    1
   124    39    57    1
   125    40    70    1
   126    40    50    1
   127    41    71    1
   128    41    49    1
