@<TRIPOS>MOLECULE
*****
 123 128 0 0 0
SMALL
GASTEIGER

@<TRIPOS>ATOM
     1 C         3.01478   3.219936   3.246904 C.3        1 UNL1     0.0009
     2 C         4.007842   4.780699   3.368902 C.2        1 UNL1     -0.0787
     3 C         5.288273   5.455799   3.396901 C.2        1 UNL1     -0.0649
     4 C         5.585746   7.122391   3.415239 C.2        1 UNL1     -0.0542
     5 C         6.544989   8.133429   3.160814 C.2        1 UNL1     0.0115
     6 C         8.042889   8.392507   2.84066 C.3        1 UNL1     -0.0348
     7 C         6.047074   9.648721   2.979264 C.2        1 UNL1     0.2441
     8 O         6.148445   10.492415   3.859282 O.2        1 UNL1     -0.2702
     9 N         5.727483   10.009447   1.6587 N.am        1 UNL1     -0.2772
     10 C         4.410999   9.716414   1.386079 C.2        1 UNL1     0.1049
     11 C         4.152346   8.468831   1.038433 C.2        1 UNL1     0.0801
     12 C         2.091629   9.988055   2.282778 C.ar        1 UNL1     0.0753
     13 C         1.932215   8.580327   2.079069 C.ar        1 UNL1     0.0305
     14 C         2.912772   7.800073   1.327563 C.2        1 UNL1     0.0924
     15 N         4.991335   7.474563   0.70071 N.pl3        1 UNL1     -0.3170
     16 C         4.196987   6.366345   0.241235 C.3        1 UNL1     0.1275
     17 N         2.879211   6.52225   0.960182 N.2        1 UNL1     -0.2557
     18 C         3.903373   6.602691   -1.237154 C.3        1 UNL1     0.0016
     19 C         5.222279   6.777507   -1.973032 C.3        1 UNL1     0.0026
     20 N         6.026125   5.577913   -1.783735 N.3        1 UNL1     -0.3018
     21 C         6.309575   5.23313   -0.389049 C.3        1 UNL1     0.0026
     22 C         4.97095   5.05767   0.33011 C.3        1 UNL1     0.0016
     23 C         7.163984   5.514433   -2.679218 C.3        1 UNL1     0.0012
     24 C         6.699961   5.265165   -4.12293 C.3        1 UNL1     -0.0339
     25 C         6.577898   6.580665   -4.909452 C.3        1 UNL1     -0.0615
     26 C         7.637951   4.28802   -4.810056 C.3        1 UNL1     -0.0615
     27 C         1.095893   10.746158   2.894258 C.ar        1 UNL1     0.1347
     28 C         -0.114173   10.2172   3.306562 C.ar        1 UNL1     0.0342
     29 C         -0.228971   8.820657   3.140275 C.ar        1 UNL1     0.1435
     30 C         0.774777   8.042421   2.562298 C.ar        1 UNL1     0.0774
     31 O         -1.388113   8.173934   3.391567 O.3        1 UNL1     -0.4436
     32 C         -1.27173   6.931814   2.681309 C.3        1 UNL1     0.3143
     33 C         0.217908   6.706468   2.518801 C.2        1 UNL1     0.2504
     34 C         -1.320216   11.005127   3.736367 C.3        1 UNL1     -0.0327
     35 O         -1.757921   5.898814   3.547208 O.2        1 UNL1     -0.4528
     36 C         -3.187794   3.219546   1.270131 C.3        1 UNL1     0.0854
     37 C         -2.482377   2.418262   0.109161 C.3        1 UNL1     0.0236
     38 C         -2.558115   0.822285   0.246509 C.3        1 UNL1     0.1131
     39 C         -2.132079   0.129928   1.603493 C.3        1 UNL1     0.0200
     40 C         -0.757216   0.623747   2.408684 C.3        1 UNL1     0.0661
     41 C         0.780363   0.822086   1.720118 C.3        1 UNL1     0.0091
     42 C         2.124763   2.001041   2.130067 C.3        1 UNL1     0.0661
     43 C         3.31479   10.630154   1.740702 C.2        1 UNL1     0.2131
     44 O         3.397937   11.819884   1.495002 O.2        1 UNL1     -0.2851
     45 O         1.349147   12.101383   3.095921 O.3        1 UNL1     -0.5056
     46 O         0.813199   5.65867   2.402172 O.2        1 UNL1     -0.2836
     47 C         3.083339   2.431375   4.582364 C.3        1 UNL1     -0.0566
     48 O         3.185625   0.964888   2.138794 O.3        1 UNL1     -0.3909
     49 C         0.645289   0.813349   0.213741 C.3        1 UNL1     -0.0577
     50 O         -1.043327   1.705814   3.271814 O.3        1 UNL1     -0.3910
     51 O         -3.639841   2.451501   2.362464 O.3        1 UNL1     -0.3753
     52 C         -1.198879   3.148305   -0.40525 C.3        1 UNL1     -0.0564
     53 O         -2.201927   0.093272   -1.016027 O.3        1 UNL1     -0.4608
     54 C         -1.806156   -1.216433   -1.093279 C.2        1 UNL1     0.3042
     55 O         -0.692617   -1.64357   -1.395644 O.2        1 UNL1     -0.2512
     56 C         -2.87812   -2.192788   -0.700422 C.3        1 UNL1     0.0332
     57 C         -3.459525   -0.098232   2.46605 C.3        1 UNL1     -0.0567
     58 C         -1.896053   7.16567   1.285937 C.3        1 UNL1     0.0210
     59 C         -4.760407   2.997886   3.056482 C.3        1 UNL1     0.0372
     60 C         -2.38942   4.34131   1.835291 C.2        1 UNL1     -0.0208
     61 C         -2.176866   4.698495   3.102566 C.2        1 UNL1     0.0882
     62 H         2.099097   3.822205   3.285761 H        1 UNL1     0.0365
     63 H         3.215807   5.513285   3.537622 H        1 UNL1     0.0576
     64 H         6.224031   4.915134   3.238326 H        1 UNL1     0.0615
     65 H         4.612558   7.558176   3.657067 H        1 UNL1     0.0622
     66 H         -4.063104   3.682877   0.793473 H        1 UNL1     0.0645
     67 H         -3.128218   2.593896   -0.768678 H        1 UNL1     0.0362
     68 H         -3.647809   0.683233   0.177558 H        1 UNL1     0.0741
     69 H         -1.932373   -0.916094   1.412799 H        1 UNL1     0.0359
     70 H         -0.612469   -0.239572   3.086024 H        1 UNL1     0.0600
     71 H         1.2064   -0.183412   1.905654 H        1 UNL1     0.0348
     72 H         1.468885   1.970342   3.012222 H        1 UNL1     0.0602
     73 H         -2.061613   4.969673   1.044753 H        1 UNL1     0.0628
     74 H         -2.429234   4.083655   3.967158 H        1 UNL1     0.1022
     75 H         8.602414   7.428253   2.776016 H        1 UNL1     0.0279
     76 H         8.260865   8.854658   1.880466 H        1 UNL1     0.0279
     77 H         8.572584   8.895834   3.662721 H        1 UNL1     0.0279
     78 H         6.301068   9.474747   1.009721 H        1 UNL1     0.1553
     79 H         5.940135   7.621383   0.408894 H        1 UNL1     0.1484
     80 H         3.33566   5.750379   -1.629622 H        1 UNL1     0.0317
     81 H         3.273901   7.488465   -1.374341 H        1 UNL1     0.0317
     82 H         5.762343   7.673546   -1.633389 H        1 UNL1     0.0428
     83 H         4.989658   6.946593   -3.024863 H        1 UNL1     0.0428
     84 H         6.845867   4.286348   -0.271552 H        1 UNL1     0.0428
     85 H         6.966132   5.972836   0.089579 H        1 UNL1     0.0428
     86 H         5.213746   4.678274   1.305352 H        1 UNL1     0.0317
     87 H         4.40443   4.237454   -0.12749 H        1 UNL1     0.0317
     88 H         7.683074   6.481064   -2.64093 H        1 UNL1     0.0429
     89 H         7.882972   4.75029   -2.356857 H        1 UNL1     0.0429
     90 H         5.718615   4.776422   -4.105475 H        1 UNL1     0.0308
     91 H         7.527583   7.123735   -4.926029 H        1 UNL1     0.0233
     92 H         6.25659   6.388672   -5.935857 H        1 UNL1     0.0233
     93 H         5.831578   7.258062   -4.477047 H        1 UNL1     0.0233
     94 H         7.426827   4.253718   -5.88434 H        1 UNL1     0.0233
     95 H         8.674626   4.611211   -4.680377 H        1 UNL1     0.0233
     96 H         7.529584   3.278327   -4.404169 H        1 UNL1     0.0233
     97 H         -2.161859   10.362715   3.977559 H        1 UNL1     0.0280
     98 H         -1.126552   11.598495   4.639509 H        1 UNL1     0.0280
     99 H         -1.625823   11.684632   2.92398 H        1 UNL1     0.0280
     100 H         0.695451   12.678692   2.742342 H        1 UNL1     0.2922
     101 H         2.462526   1.538284   4.514276 H        1 UNL1     0.0236
     102 H         2.83291   3.038235   5.45184 H        1 UNL1     0.0236
     103 H         4.098226   2.051755   4.787514 H        1 UNL1     0.0236
     104 H         3.298483   0.666078   3.062345 H        1 UNL1     0.2098
     105 H         0.196814   1.712068   -0.202174 H        1 UNL1     0.0234
     106 H         1.559903   0.563924   -0.324028 H        1 UNL1     0.0234
     107 H         0.0   0.0   -0.0 H        1 UNL1     0.0234
     108 H         -1.319304   2.457613   2.712883 H        1 UNL1     0.2098
     109 H         -0.453769   3.289677   0.390072 H        1 UNL1     0.0234
     110 H         -0.731947   2.647011   -1.259898 H        1 UNL1     0.0234
     111 H         -1.42841   4.154762   -0.779824 H        1 UNL1     0.0234
     112 H         -2.496958   -3.215478   -0.778945 H        1 UNL1     0.0342
     113 H         -3.265535   -1.995805   0.298053 H        1 UNL1     0.0342
     114 H         -3.712527   -2.089138   -1.40766 H        1 UNL1     0.0342
     115 H         -4.177862   -0.747049   1.946226 H        1 UNL1     0.0234
     116 H         -3.279371   -0.531484   3.451893 H        1 UNL1     0.0234
     117 H         -4.059246   0.81828   2.601259 H        1 UNL1     0.0234
     118 H         -2.995087   7.061205   1.300676 H        1 UNL1     0.0309
     119 H         -1.63441   8.137556   0.855608 H        1 UNL1     0.0309
     120 H         -1.580789   6.414821   0.553176 H        1 UNL1     0.0309
     121 H         -4.456035   3.959584   3.468614 H        1 UNL1     0.0524
     122 H         -5.618422   3.17975   2.388072 H        1 UNL1     0.0524
     123 H         -5.07067   2.329367   3.85455 H        1 UNL1     0.0524
@<TRIPOS>BOND
     1     1     2    1
     2     1    42    1
     3     2     3    2
     4     3     4    1
     5     4     5    2
     6     5     7    1
     7     6    75    1
     8     6    76    1
     9     6    77    1
    10     7     9   am
    11     9    10    1
    12    10    11    2
    13    10    43    1
    14    11    14    1
    15    11    15    1
    16    12    13   ar
    17    12    27   ar
    18    12    43    1
    19    13    14    1
    20    13    30   ar
    21    14    17    2
    22    15    16    1
    23    16    17    1
    24    16    18    1
    25    16    22    1
    26    18    19    1
    27    19    20    1
    28    20    21    1
    29    21    22    1
    30    23    24    1
    31    23    88    1
    32    23    89    1
    33    24    25    1
    34    24    26    1
    35    24    90    1
    36    25    91    1
    37    25    92    1
    38    25    93    1
    39    26    94    1
    40    26    95    1
    41    26    96    1
    42    27    28   ar
    43    28    29   ar
    44    29    30   ar
    45    29    31    1
    46    30    33    1
    47    31    32    1
    48    32    33    1
    49    32    35    1
    50    34    97    1
    51    34    98    1
    52    34    99    1
    53    35    61    1
    54    36    37    1
    55    36    60    1
    56    37    38    1
    57    38    39    1
    58    39    40    1
    59    40    41    1
    60    41    42    1
    61    45   100    1
    62    47   101    1
    63    47   102    1
    64    47   103    1
    65    48   104    1
    66    49   105    1
    67    49   106    1
    68    49   107    1
    69    50   108    1
    70    51    59    1
    71    52   109    1
    72    52   110    1
    73    52   111    1
    74    53    54    1
    75    54    55    2
    76    54    56    1
    77    56   112    1
    78    56   113    1
    79    56   114    1
    80    57   115    1
    81    57   116    1
    82    57   117    1
    83    58   118    1
    84    58   119    1
    85    58   120    1
    86    59   121    1
    87    59   122    1
    88    59   123    1
    89    60    61    2
    90     1    47    1
    91     1    62    1
    92     2    63    1
    93     3    64    1
    94     4    65    1
    95     5     6    1
    96     7     8    2
    97     9    78    1
    98    15    79    1
    99    18    80    1
   100    18    81    1
   101    19    82    1
   102    19    83    1
   103    20    23    1
   104    21    84    1
   105    21    85    1
   106    22    86    1
   107    22    87    1
   108    27    45    1
   109    28    34    1
   110    32    58    1
   111    33    46    2
   112    36    51    1
   113    36    66    1
   114    37    52    1
   115    37    67    1
   116    38    53    1
   117    38    68    1
   118    42    48    1
   119    42    72    1
   120    43    44    2
   121    60    73    1
   122    61    74    1
   123    39    69    1
   124    39    57    1
   125    40    70    1
   126    40    50    1
   127    41    71    1
   128    41    49    1
