@<TRIPOS>MOLECULE
*****
 123 128 0 0 0
SMALL
GASTEIGER

@<TRIPOS>ATOM
     1 C         2.034094   -3.087064   2.120819 C.3        1 UNL1     0.0009
     2 C         1.412703   -4.329377   3.34865 C.2        1 UNL1     -0.0787
     3 C         1.086252   -4.693815   4.711243 C.2        1 UNL1     -0.0649
     4 C         0.354219   -6.118161   5.260538 C.2        1 UNL1     -0.0542
     5 C         -0.360325   -6.720321   6.325388 C.2        1 UNL1     0.0115
     6 C         -0.824122   -6.52692   7.795358 C.3        1 UNL1     -0.0348
     7 C         -1.171518   -8.077368   6.04722 C.2        1 UNL1     0.2441
     8 O         -0.759686   -9.17942   6.382485 O.2        1 UNL1     -0.2702
     9 N         -2.501021   -7.893654   5.6291 N.am        1 UNL1     -0.2772
     10 C         -2.561043   -7.769447   4.260052 C.2        1 UNL1     0.1049
     11 C         -2.310818   -6.567564   3.773139 C.2        1 UNL1     0.0801
     12 C         -1.78069   -8.834793   2.135571 C.ar        1 UNL1     0.0753
     13 C         -1.334874   -7.533834   1.738883 C.ar        1 UNL1     0.0305
     14 C         -1.704656   -6.336278   2.489998 C.2        1 UNL1     0.0924
     15 N         -2.209339   -5.384419   4.402741 N.pl3        1 UNL1     -0.3170
     16 C         -2.098555   -4.360219   3.398253 C.3        1 UNL1     0.1275
     17 N         -1.468145   -5.056292   2.216818 N.2        1 UNL1     -0.2557
     18 C         -3.515651   -3.994242   2.967439 C.3        1 UNL1     0.0016
     19 C         -4.307348   -3.583087   4.1986 C.3        1 UNL1     0.0026
     20 N         -3.641397   -2.450053   4.826111 N.3        1 UNL1     -0.3018
     21 C         -2.251001   -2.686389   5.220207 C.3        1 UNL1     0.0026
     22 C         -1.47318   -3.093603   3.967583 C.3        1 UNL1     0.0016
     23 C         -4.46334   -1.794672   5.823873 C.3        1 UNL1     0.0012
     24 C         -3.691913   -1.647063   7.144808 C.3        1 UNL1     -0.0339
     25 C         -2.457515   -0.745777   6.977466 C.3        1 UNL1     -0.0615
     26 C         -4.617086   -1.131459   8.233378 C.3        1 UNL1     -0.0615
     27 C         -1.525986   -9.955904   1.349216 C.ar        1 UNL1     0.1347
     28 C         -0.872408   -9.895139   0.131352 C.ar        1 UNL1     0.0342
     29 C         -0.399853   -8.611524   -0.215333 C.ar        1 UNL1     0.1435
     30 C         -0.615974   -7.485385   0.579853 C.ar        1 UNL1     0.0774
     31 O         0.159313   -8.368223   -1.420797 O.3        1 UNL1     -0.4436
     32 C         0.066512   -6.944861   -1.582981 C.3        1 UNL1     0.3143
     33 C         -0.041704   -6.392081   -0.176234 C.2        1 UNL1     0.2504
     34 C         -0.784928   -11.005207   -0.878695 C.3        1 UNL1     -0.0327
     35 O         1.319046   -6.493986   -2.11319 O.2        1 UNL1     -0.4528
     36 C         0.521234   -3.426532   -4.201805 C.3        1 UNL1     0.0854
     37 C         -0.194756   -2.088135   -3.773349 C.3        1 UNL1     0.0236
     38 C         0.636374   -0.75035   -4.075504 C.3        1 UNL1     0.1131
     39 C         2.140546   -0.636134   -3.599384 C.3        1 UNL1     0.0200
     40 C         2.586753   -1.153981   -2.077815 C.3        1 UNL1     0.0661
     41 C         1.817952   -0.74209   -0.622857 C.3        1 UNL1     0.0091
     42 C         1.608611   -1.702737   0.925928 C.3        1 UNL1     0.0661
     43 C         -2.601088   -8.937695   3.367893 C.2        1 UNL1     0.2131
     44 O         -3.350209   -9.868701   3.601951 O.2        1 UNL1     -0.2851
     45 O         -1.954359   -11.191673   1.829644 O.3        1 UNL1     -0.5056
     46 O         0.291724   -5.302469   0.232941 O.2        1 UNL1     -0.2836
     47 C         3.576368   -2.946823   2.228999 C.3        1 UNL1     -0.0566
     48 O         2.029832   -0.588087   1.808677 O.3        1 UNL1     -0.3909
     49 C         0.477406   -0.117264   -0.939123 C.3        1 UNL1     -0.0577
     50 O         2.894323   -2.53348   -2.088097 O.3        1 UNL1     -0.3910
     51 O         1.858258   -3.299999   -4.63051 O.3        1 UNL1     -0.3753
     52 C         -1.031717   -2.269075   -2.465027 C.3        1 UNL1     -0.0564
     53 O         -0.188001   0.500871   -3.990781 O.3        1 UNL1     -0.4608
     54 C         -0.380571   1.251153   -2.860328 C.2        1 UNL1     0.3042
     55 O         0.452688   1.934458   -2.266516 O.2        1 UNL1     -0.2512
     56 C         -1.8   1.244245   -2.368508 C.3        1 UNL1     0.0332
     57 C         3.069691   -1.055824   -4.831749 C.3        1 UNL1     -0.0567
     58 C         -1.261296   -6.675211   -2.328463 C.3        1 UNL1     0.0210
     59 C         2.71281   -4.379142   -4.254936 C.3        1 UNL1     0.0372
     60 C         0.499017   -4.507042   -3.178494 C.2        1 UNL1     -0.0208
     61 C         1.46815   -5.323072   -2.761817 C.2        1 UNL1     0.0882
     62 H         1.841094   -3.810766   1.319745 H        1 UNL1     0.0365
     63 H         1.273378   -5.20011   2.704537 H        1 UNL1     0.0576
     64 H         1.143914   -3.969649   5.526944 H        1 UNL1     0.0615
     65 H         0.419051   -6.792283   4.402144 H        1 UNL1     0.0622
     66 H         -0.074097   -3.799703   -5.04701 H        1 UNL1     0.0645
     67 H         -1.032133   -1.991988   -4.486171 H        1 UNL1     0.0362
     68 H         0.681421   -0.805913   -5.173869 H        1 UNL1     0.0741
     69 H         2.423305   0.40804   -3.586875 H        1 UNL1     0.0359
     70 H         3.569053   -0.652253   -1.986079 H        1 UNL1     0.0600
     71 H         2.410559   0.148881   -0.336598 H        1 UNL1     0.0348
     72 H         2.440111   -2.177215   0.384824 H        1 UNL1     0.0602
     73 H         -0.500663   -4.662596   -2.856482 H        1 UNL1     0.0628
     74 H         2.525081   -5.196682   -2.998801 H        1 UNL1     0.1022
     75 H         -1.917057   -6.734667   7.892143 H        1 UNL1     0.0279
     76 H         -0.391657   -7.199222   8.532958 H        1 UNL1     0.0279
     77 H         -0.772937   -5.478226   8.12296 H        1 UNL1     0.0279
     78 H         -2.870401   -7.034574   6.031116 H        1 UNL1     0.1553
     79 H         -2.575266   -5.208642   5.320419 H        1 UNL1     0.1484
     80 H         -3.467287   -3.18162   2.232544 H        1 UNL1     0.0317
     81 H         -4.003569   -4.838826   2.469176 H        1 UNL1     0.0317
     82 H         -4.421215   -4.417096   4.906678 H        1 UNL1     0.0428
     83 H         -5.314994   -3.328055   3.868964 H        1 UNL1     0.0428
     84 H         -1.749899   -1.79725   5.615353 H        1 UNL1     0.0428
     85 H         -2.176117   -3.419287   6.035419 H        1 UNL1     0.0428
     86 H         -0.441713   -3.128092   4.265701 H        1 UNL1     0.0317
     87 H         -1.497414   -2.281329   3.230887 H        1 UNL1     0.0317
     88 H         -4.716635   -0.792791   5.453239 H        1 UNL1     0.0429
     89 H         -5.409393   -2.330174   5.975516 H        1 UNL1     0.0429
     90 H         -3.358862   -2.636883   7.478796 H        1 UNL1     0.0308
     91 H         -1.562142   -1.334563   6.756691 H        1 UNL1     0.0233
     92 H         -2.615366   -0.019218   6.176964 H        1 UNL1     0.0233
     93 H         -2.240318   -0.163071   7.880856 H        1 UNL1     0.0233
     94 H         -5.398669   -0.50012   7.797057 H        1 UNL1     0.0233
     95 H         -5.104146   -1.970477   8.738139 H        1 UNL1     0.0233
     96 H         -4.070883   -0.542138   8.975222 H        1 UNL1     0.0233
     97 H         -1.109001   -10.685496   -1.864592 H        1 UNL1     0.0280
     98 H         0.242685   -11.370681   -1.003979 H        1 UNL1     0.0280
     99 H         -1.42402   -11.845034   -0.560344 H        1 UNL1     0.0280
     100 H         -1.262771   -11.759832   2.120372 H        1 UNL1     0.2922
     101 H         4.058014   -3.782746   1.722141 H        1 UNL1     0.0236
     102 H         3.925652   -2.834387   3.254837 H        1 UNL1     0.0236
     103 H         3.948408   -2.050251   1.705608 H        1 UNL1     0.0236
     104 H         2.974502   -0.411982   1.631035 H        1 UNL1     0.2098
     105 H         0.537595   0.862451   -1.406399 H        1 UNL1     0.0234
     106 H         -0.204628   -0.759968   -1.49562 H        1 UNL1     0.0234
     107 H         -0.0   0.0   0.0 H        1 UNL1     0.0234
     108 H         3.762918   -2.633807   -2.523122 H        1 UNL1     0.2098
     109 H         -0.792641   -3.207034   -1.944655 H        1 UNL1     0.0234
     110 H         -0.931054   -1.428512   -1.769999 H        1 UNL1     0.0234
     111 H         -2.108511   -2.312422   -2.676167 H        1 UNL1     0.0234
     112 H         -2.383456   1.998578   -2.905077 H        1 UNL1     0.0342
     113 H         -2.258862   0.260536   -2.455717 H        1 UNL1     0.0342
     114 H         -1.795601   1.516307   -1.304023 H        1 UNL1     0.0342
     115 H         3.768397   -0.254155   -5.108019 H        1 UNL1     0.0234
     116 H         3.65832   -1.958553   -4.656691 H        1 UNL1     0.0234
     117 H         2.514272   -1.189211   -5.776026 H        1 UNL1     0.0234
     118 H         -2.109878   -6.552825   -1.632807 H        1 UNL1     0.0309
     119 H         -1.213003   -5.805225   -2.99103 H        1 UNL1     0.0309
     120 H         -1.569309   -7.518125   -2.956737 H        1 UNL1     0.0309
     121 H         3.587762   -3.951944   -3.765735 H        1 UNL1     0.0524
     122 H         2.231595   -5.06326   -3.53629 H        1 UNL1     0.0524
     123 H         3.012768   -4.944131   -5.132949 H        1 UNL1     0.0524
@<TRIPOS>BOND
     1     1     2    1
     2     1    42    1
     3     2     3    2
     4     3     4    1
     5     4     5    2
     6     5     7    1
     7     6    75    1
     8     6    76    1
     9     6    77    1
    10     7     9   am
    11     9    10    1
    12    10    11    2
    13    10    43    1
    14    11    14    1
    15    11    15    1
    16    12    13   ar
    17    12    27   ar
    18    12    43    1
    19    13    14    1
    20    13    30   ar
    21    14    17    2
    22    15    16    1
    23    16    17    1
    24    16    18    1
    25    16    22    1
    26    18    19    1
    27    19    20    1
    28    20    21    1
    29    21    22    1
    30    23    24    1
    31    23    88    1
    32    23    89    1
    33    24    25    1
    34    24    26    1
    35    24    90    1
    36    25    91    1
    37    25    92    1
    38    25    93    1
    39    26    94    1
    40    26    95    1
    41    26    96    1
    42    27    28   ar
    43    28    29   ar
    44    29    30   ar
    45    29    31    1
    46    30    33    1
    47    31    32    1
    48    32    33    1
    49    32    35    1
    50    34    97    1
    51    34    98    1
    52    34    99    1
    53    35    61    1
    54    36    37    1
    55    36    60    1
    56    37    38    1
    57    38    39    1
    58    39    40    1
    59    40    41    1
    60    41    42    1
    61    45   100    1
    62    47   101    1
    63    47   102    1
    64    47   103    1
    65    48   104    1
    66    49   105    1
    67    49   106    1
    68    49   107    1
    69    50   108    1
    70    51    59    1
    71    52   109    1
    72    52   110    1
    73    52   111    1
    74    53    54    1
    75    54    55    2
    76    54    56    1
    77    56   112    1
    78    56   113    1
    79    56   114    1
    80    57   115    1
    81    57   116    1
    82    57   117    1
    83    58   118    1
    84    58   119    1
    85    58   120    1
    86    59   121    1
    87    59   122    1
    88    59   123    1
    89    60    61    2
    90     1    47    1
    91     1    62    1
    92     2    63    1
    93     3    64    1
    94     4    65    1
    95     5     6    1
    96     7     8    2
    97     9    78    1
    98    15    79    1
    99    18    80    1
   100    18    81    1
   101    19    82    1
   102    19    83    1
   103    20    23    1
   104    21    84    1
   105    21    85    1
   106    22    86    1
   107    22    87    1
   108    27    45    1
   109    28    34    1
   110    32    58    1
   111    33    46    2
   112    36    51    1
   113    36    66    1
   114    37    52    1
   115    37    67    1
   116    38    53    1
   117    38    68    1
   118    42    48    1
   119    42    72    1
   120    43    44    2
   121    60    73    1
   122    61    74    1
   123    39    69    1
   124    39    57    1
   125    40    70    1
   126    40    50    1
   127    41    71    1
   128    41    49    1
