@<TRIPOS>MOLECULE
*****
 123 128 0 0 0
SMALL
GASTEIGER

@<TRIPOS>ATOM
     1 C         -3.939826   3.049878   -1.9289 C.3        1 UNL1     0.0009
     2 C         -4.467037   4.178835   -3.301686 C.2        1 UNL1     -0.0787
     3 C         -4.560958   5.507367   -3.869336 C.2        1 UNL1     -0.0649
     4 C         -5.119662   5.945089   -5.406414 C.2        1 UNL1     -0.0542
     5 C         -5.110396   6.953503   -6.401448 C.2        1 UNL1     0.0115
     6 C         -4.707834   8.424775   -6.69577 C.3        1 UNL1     -0.0348
     7 C         -5.534736   6.569009   -7.901144 C.2        1 UNL1     0.2441
     8 O         -6.632241   6.835544   -8.371217 O.2        1 UNL1     -0.2702
     9 N         -4.476346   6.140855   -8.721294 N.am        1 UNL1     -0.2772
     10 C         -4.293157   4.782626   -8.598912 C.2        1 UNL1     0.1049
     11 C         -3.569667   4.383391   -7.568672 C.2        1 UNL1     0.0801
     12 C         -5.52304   2.604588   -8.628477 C.ar        1 UNL1     0.0753
     13 C         -4.864411   2.30559   -7.3934 C.ar        1 UNL1     0.0305
     14 C         -3.766987   3.129994   -6.89233 C.2        1 UNL1     0.0924
     15 N         -2.800269   5.093972   -6.726277 N.pl3        1 UNL1     -0.3170
     16 C         -2.091487   4.163849   -5.887973 C.3        1 UNL1     0.1275
     17 N         -2.985247   2.949047   -5.831639 N.2        1 UNL1     -0.2557
     18 C         -0.839881   3.733915   -6.647146 C.3        1 UNL1     0.0016
     19 C         -0.045459   4.976009   -7.018205 C.3        1 UNL1     0.0026
     20 N         0.301678   5.69111   -5.797896 N.3        1 UNL1     -0.3018
     21 C         -0.835788   6.09279   -4.967718 C.3        1 UNL1     0.0026
     22 C         -1.617042   4.829308   -4.602822 C.3        1 UNL1     0.0016
     23 C         1.30361   6.716517   -6.010772 C.3        1 UNL1     0.0012
     24 C         1.396885   7.077156   -7.501743 C.3        1 UNL1     -0.0339
     25 C         1.750514   8.560221   -7.700542 C.3        1 UNL1     -0.0615
     26 C         2.394503   6.166635   -8.196358 C.3        1 UNL1     -0.0615
     27 C         -6.484753   1.748205   -9.159356 C.ar        1 UNL1     0.1347
     28 C         -6.84125   0.549127   -8.568448 C.ar        1 UNL1     0.0342
     29 C         -6.215426   0.299298   -7.328652 C.ar        1 UNL1     0.1435
     30 C         -5.276751   1.16552   -6.766718 C.ar        1 UNL1     0.0774
     31 O         -6.374794   -0.87663   -6.683051 O.3        1 UNL1     -0.4436
     32 C         -5.26764   -0.942921   -5.77163 C.3        1 UNL1     0.3143
     33 C         -4.843747   0.496126   -5.557923 C.2        1 UNL1     0.2504
     34 C         -7.672184   -0.532609   -9.200506 C.3        1 UNL1     -0.0327
     35 O         -5.775059   -1.418795   -4.518904 O.2        1 UNL1     -0.4528
     36 C         -2.91488   -3.307041   -2.887344 C.3        1 UNL1     0.0854
     37 C         -1.46599   -2.80103   -2.523761 C.3        1 UNL1     0.0236
     38 C         -1.047437   -2.996374   -0.988054 C.3        1 UNL1     0.1131
     39 C         -2.010211   -2.48693   0.159031 C.3        1 UNL1     0.0200
     40 C         -2.750062   -0.996564   0.04126 C.3        1 UNL1     0.0661
     41 C         -1.979191   0.469226   -0.325926 C.3        1 UNL1     0.0091
     42 C         -2.594804   1.944879   -1.2253 C.3        1 UNL1     0.0661
     43 C         -5.083786   3.81225   -9.370683 C.2        1 UNL1     0.2131
     44 O         -5.259286   3.968884   -10.565423 O.2        1 UNL1     -0.2851
     45 O         -7.110938   2.135494   -10.342292 O.3        1 UNL1     -0.5056
     46 O         -4.292755   0.984565   -4.596835 O.2        1 UNL1     -0.2836
     47 C         -4.895797   3.194751   -0.714359 C.3        1 UNL1     -0.0566
     48 O         -2.103423   2.90898   -0.211312 O.3        1 UNL1     -0.3909
     49 C         -0.595529   0.172581   -0.859756 C.3        1 UNL1     -0.0577
     50 O         -3.965532   -1.095502   -0.67328 O.3        1 UNL1     -0.3910
     51 O         -3.720315   -3.702298   -1.799926 O.3        1 UNL1     -0.3753
     52 C         -1.075169   -1.523177   -3.335735 C.3        1 UNL1     -0.0564
     53 O         0.424943   -2.841113   -0.742458 O.3        1 UNL1     -0.4608
     54 C         1.114286   -3.369387   0.317572 C.2        1 UNL1     0.3042
     55 O         1.776004   -2.759582   1.156682 O.2        1 UNL1     -0.2512
     56 C         0.963224   -4.858004   0.45141 C.3        1 UNL1     0.0332
     57 C         -2.904754   -3.728367   0.624649 C.3        1 UNL1     -0.0567
     58 C         -4.135418   -1.691727   -6.512503 C.3        1 UNL1     0.0210
     59 C         -4.027748   -2.6624   -0.872585 C.3        1 UNL1     0.0372
     60 C         -3.725955   -2.360412   -3.700492 C.2        1 UNL1     -0.0208
     61 C         -4.998933   -1.98325   -3.573914 C.2        1 UNL1     0.0882
     62 H         -4.305277   2.197982   -2.51493 H        1 UNL1     0.0365
     63 H         -4.982277   3.474428   -3.958046 H        1 UNL1     0.0576
     64 H         -4.103218   6.371481   -3.382625 H        1 UNL1     0.0615
     65 H         -5.623035   5.043978   -5.767107 H        1 UNL1     0.0622
     66 H         -2.748146   -4.186182   -3.52559 H        1 UNL1     0.0645
     67 H         -0.796685   -3.520387   -3.026868 H        1 UNL1     0.0362
     68 H         -1.077317   -4.094996   -0.927572 H        1 UNL1     0.0741
     69 H         -1.442756   -2.39817   1.075832 H        1 UNL1     0.0359
     70 H         -3.059159   -0.85337   1.094358 H        1 UNL1     0.0600
     71 H         -1.745518   0.826102   0.696323 H        1 UNL1     0.0348
     72 H         -3.488611   1.387509   -0.909446 H        1 UNL1     0.0602
     73 H         -3.168224   -2.067572   -4.555143 H        1 UNL1     0.0628
     74 H         -5.62026   -2.192247   -2.702416 H        1 UNL1     0.1022
     75 H         -3.820223   8.460465   -7.372459 H        1 UNL1     0.0279
     76 H         -5.435949   9.028894   -7.232388 H        1 UNL1     0.0279
     77 H         -4.323936   8.946575   -5.806923 H        1 UNL1     0.0279
     78 H         -3.612779   6.593938   -8.429671 H        1 UNL1     0.1553
     79 H         -2.456623   6.014862   -6.928272 H        1 UNL1     0.1484
     80 H         -0.252837   3.057166   -6.014568 H        1 UNL1     0.0317
     81 H         -1.103299   3.170588   -7.54877 H        1 UNL1     0.0317
     82 H         -0.602312   5.623386   -7.711552 H        1 UNL1     0.0428
     83 H         0.841599   4.646702   -7.560179 H        1 UNL1     0.0428
     84 H         -0.545013   6.556531   -4.019981 H        1 UNL1     0.0428
     85 H         -1.45198   6.857286   -5.460842 H        1 UNL1     0.0428
     86 H         -2.358421   5.14265   -3.89137 H        1 UNL1     0.0317
     87 H         -0.980565   4.14945   -4.023352 H        1 UNL1     0.0317
     88 H         0.999757   7.611956   -5.452958 H        1 UNL1     0.0429
     89 H         2.280225   6.4078   -5.616194 H        1 UNL1     0.0429
     90 H         0.429665   6.881699   -7.979755 H        1 UNL1     0.0308
     91 H         2.264784   8.72232   -8.652567 H        1 UNL1     0.0233
     92 H         0.850975   9.179442   -7.668861 H        1 UNL1     0.0233
     93 H         2.411824   8.941087   -6.912859 H        1 UNL1     0.0233
     94 H         3.09828   5.751272   -7.46697 H        1 UNL1     0.0233
     95 H         1.870913   5.332776   -8.672274 H        1 UNL1     0.0233
     96 H         2.964405   6.70635   -8.957861 H        1 UNL1     0.0233
     97 H         -8.427745   -0.128641   -9.867716 H        1 UNL1     0.0280
     98 H         -7.067142   -1.216144   -9.810392 H        1 UNL1     0.0280
     99 H         -8.180783   -1.114211   -8.414275 H        1 UNL1     0.0280
     100 H         -7.085575   3.060411   -10.51407 H        1 UNL1     0.2922
     101 H         -4.557077   4.009716   -0.075017 H        1 UNL1     0.0236
     102 H         -5.026944   2.266662   -0.15899 H        1 UNL1     0.0236
     103 H         -5.914497   3.484824   -1.021445 H        1 UNL1     0.0236
     104 H         -2.831267   3.532347   -0.01993 H        1 UNL1     0.2098
     105 H         -0.536858   -0.712487   -1.488265 H        1 UNL1     0.0234
     106 H         -0.105154   1.01517   -1.347098 H        1 UNL1     0.0234
     107 H         0.0   0.0   0.0 H        1 UNL1     0.0234
     108 H         -4.431716   -0.243326   -0.572107 H        1 UNL1     0.2098
     109 H         -0.574556   -1.768982   -4.282667 H        1 UNL1     0.0234
     110 H         -1.925427   -0.861105   -3.531859 H        1 UNL1     0.0234
     111 H         -0.368429   -0.891653   -2.781081 H        1 UNL1     0.0234
     112 H         0.214586   -5.221473   -0.259067 H        1 UNL1     0.0342
     113 H         1.910553   -5.379102   0.321527 H        1 UNL1     0.0342
     114 H         0.599525   -5.076206   1.464955 H        1 UNL1     0.0342
     115 H         -3.662883   -3.431539   1.362431 H        1 UNL1     0.0234
     116 H         -3.422458   -4.23393   -0.192931 H        1 UNL1     0.0234
     117 H         -2.340963   -4.488432   1.192438 H        1 UNL1     0.0234
     118 H         -3.673786   -1.070733   -7.300075 H        1 UNL1     0.0309
     119 H         -3.352631   -2.059343   -5.841456 H        1 UNL1     0.0309
     120 H         -4.499488   -2.566819   -7.061843 H        1 UNL1     0.0309
     121 H         -3.194538   -2.586223   -0.174506 H        1 UNL1     0.0524
     122 H         -4.138895   -1.682028   -1.365084 H        1 UNL1     0.0524
     123 H         -4.944565   -2.89441   -0.338066 H        1 UNL1     0.0524
@<TRIPOS>BOND
     1     1     2    1
     2     1    42    1
     3     2     3    2
     4     3     4    1
     5     4     5    2
     6     5     7    1
     7     6    75    1
     8     6    76    1
     9     6    77    1
    10     7     9   am
    11     9    10    1
    12    10    11    2
    13    10    43    1
    14    11    14    1
    15    11    15    1
    16    12    13   ar
    17    12    27   ar
    18    12    43    1
    19    13    14    1
    20    13    30   ar
    21    14    17    2
    22    15    16    1
    23    16    17    1
    24    16    18    1
    25    16    22    1
    26    18    19    1
    27    19    20    1
    28    20    21    1
    29    21    22    1
    30    23    24    1
    31    23    88    1
    32    23    89    1
    33    24    25    1
    34    24    26    1
    35    24    90    1
    36    25    91    1
    37    25    92    1
    38    25    93    1
    39    26    94    1
    40    26    95    1
    41    26    96    1
    42    27    28   ar
    43    28    29   ar
    44    29    30   ar
    45    29    31    1
    46    30    33    1
    47    31    32    1
    48    32    33    1
    49    32    35    1
    50    34    97    1
    51    34    98    1
    52    34    99    1
    53    35    61    1
    54    36    37    1
    55    36    60    1
    56    37    38    1
    57    38    39    1
    58    39    40    1
    59    40    41    1
    60    41    42    1
    61    45   100    1
    62    47   101    1
    63    47   102    1
    64    47   103    1
    65    48   104    1
    66    49   105    1
    67    49   106    1
    68    49   107    1
    69    50   108    1
    70    51    59    1
    71    52   109    1
    72    52   110    1
    73    52   111    1
    74    53    54    1
    75    54    55    2
    76    54    56    1
    77    56   112    1
    78    56   113    1
    79    56   114    1
    80    57   115    1
    81    57   116    1
    82    57   117    1
    83    58   118    1
    84    58   119    1
    85    58   120    1
    86    59   121    1
    87    59   122    1
    88    59   123    1
    89    60    61    2
    90     1    47    1
    91     1    62    1
    92     2    63    1
    93     3    64    1
    94     4    65    1
    95     5     6    1
    96     7     8    2
    97     9    78    1
    98    15    79    1
    99    18    80    1
   100    18    81    1
   101    19    82    1
   102    19    83    1
   103    20    23    1
   104    21    84    1
   105    21    85    1
   106    22    86    1
   107    22    87    1
   108    27    45    1
   109    28    34    1
   110    32    58    1
   111    33    46    2
   112    36    51    1
   113    36    66    1
   114    37    52    1
   115    37    67    1
   116    38    53    1
   117    38    68    1
   118    42    48    1
   119    42    72    1
   120    43    44    2
   121    60    73    1
   122    61    74    1
   123    39    69    1
   124    39    57    1
   125    40    70    1
   126    40    50    1
   127    41    71    1
   128    41    49    1
