@<TRIPOS>MOLECULE
*****
 123 128 0 0 0
SMALL
GASTEIGER

@<TRIPOS>ATOM
     1 C         -5.179351   -0.665347   -0.417938 C.3        1 UNL1     0.0009
     2 C         -6.530106   -0.520978   -1.679546 C.2        1 UNL1     -0.0787
     3 C         -7.738628   0.116325   -2.158467 C.2        1 UNL1     -0.0649
     4 C         -8.545485   -0.150239   -3.622804 C.2        1 UNL1     -0.0542
     5 C         -9.469147   0.385678   -4.553782 C.2        1 UNL1     0.0115
     6 C         -10.501032   1.523197   -4.787422 C.3        1 UNL1     -0.0348
     7 C         -9.514435   -0.220055   -6.039724 C.2        1 UNL1     0.2441
     8 O         -10.37776   -1.002022   -6.41352 O.2        1 UNL1     -0.2702
     9 N         -8.652967   0.40591   -6.957434 N.am        1 UNL1     -0.2772
     10 C         -7.410684   -0.185109   -6.929992 C.2        1 UNL1     0.1049
     11 C         -6.59111   0.226637   -5.979736 C.2        1 UNL1     0.0801
     12 C         -6.270829   -2.41061   -7.002155 C.ar        1 UNL1     0.0753
     13 C         -5.551892   -1.992391   -5.837324 C.ar        1 UNL1     0.0305
     14 C         -5.594529   -0.609519   -5.367326 C.2        1 UNL1     0.0924
     15 N         -6.68763   1.282215   -5.153318 N.pl3        1 UNL1     -0.3170
     16 C         -5.451017   1.38451   -4.424911 C.3        1 UNL1     0.1275
     17 N         -4.922246   -0.028256   -4.377833 N.2        1 UNL1     -0.2557
     18 C         -4.477105   2.172393   -5.295795 C.3        1 UNL1     0.0016
     19 C         -5.11094   3.508858   -5.647511 C.3        1 UNL1     0.0026
     20 N         -5.408116   4.224567   -4.414435 N.3        1 UNL1     -0.3018
     21 C         -6.289824   3.518305   -3.482688 C.3        1 UNL1     0.0026
     22 C         -5.631533   2.1809   -3.139328 C.3        1 UNL1     0.0016
     23 C         -5.734024   5.619252   -4.636432 C.3        1 UNL1     0.0012
     24 C         -5.521463   5.993839   -6.111647 C.3        1 UNL1     -0.0339
     25 C         -6.357186   7.22275   -6.505858 C.3        1 UNL1     -0.0615
     26 C         -4.043573   6.211499   -6.385953 C.3        1 UNL1     -0.0615
     27 C         -6.1301   -3.698598   -7.513427 C.ar        1 UNL1     0.1347
     28 C         -5.273317   -4.640011   -6.971473 C.ar        1 UNL1     0.0342
     29 C         -4.61283   -4.221998   -5.79666 C.ar        1 UNL1     0.1435
     30 C         -4.771564   -2.946998   -5.252236 C.ar        1 UNL1     0.0774
     31 O         -3.662791   -4.984681   -5.212923 O.3        1 UNL1     -0.4436
     32 C         -2.921609   -4.072719   -4.388394 C.3        1 UNL1     0.3143
     33 C         -3.869677   -2.921561   -4.119664 C.2        1 UNL1     0.2504
     34 C         -4.882488   -5.945514   -7.606308 C.3        1 UNL1     -0.0327
     35 O         -2.690584   -4.724584   -3.133424 O.2        1 UNL1     -0.4528
     36 C         0.5898   -3.332509   -1.826022 C.3        1 UNL1     0.0854
     37 C         0.992043   -1.835106   -1.537047 C.3        1 UNL1     0.0236
     38 C         1.520352   -1.552221   -0.049563 C.3        1 UNL1     0.1131
     39 C         0.672562   -2.044932   1.191709 C.3        1 UNL1     0.0200
     40 C         -0.983379   -1.845723   1.216471 C.3        1 UNL1     0.0661
     41 C         -1.816055   -0.405753   0.883689 C.3        1 UNL1     0.0091
     42 C         -3.461626   -0.131807   0.120503 C.3        1 UNL1     0.0661
     43 C         -7.103065   -1.39944   -7.700137 C.2        1 UNL1     0.2131
     44 O         -7.435972   -1.491651   -8.867787 O.2        1 UNL1     -0.2851
     45 O         -6.900206   -4.039776   -8.623369 O.3        1 UNL1     -0.5056
     46 O         -3.889855   -2.167314   -3.172797 O.2        1 UNL1     -0.2836
     47 C         -5.713743   -1.351136   0.86818 C.3        1 UNL1     -0.0566
     48 O         -3.905836   0.835769   1.152778 O.3        1 UNL1     -0.3909
     49 C         -0.86094   0.571693   0.235732 C.3        1 UNL1     -0.0577
     50 O         -1.628524   -2.933731   0.585797 O.3        1 UNL1     -0.3910
     51 O         0.576172   -4.193181   -0.709559 O.3        1 UNL1     -0.3753
     52 C         0.068667   -0.827611   -2.296836 C.3        1 UNL1     -0.0564
     53 O         2.217051   -0.231316   0.099256 O.3        1 UNL1     -0.4608
     54 C         3.203436   0.049411   1.008194 C.2        1 UNL1     0.3042
     55 O         3.283223   -0.347252   2.170145 O.2        1 UNL1     -0.2512
     56 C         4.312518   0.895108   0.450119 C.3        1 UNL1     0.0332
     57 C         1.259608   -3.462078   1.644754 C.3        1 UNL1     -0.0567
     58 C         -1.745663   -3.559409   -5.251641 C.3        1 UNL1     0.0210
     59 C         0.522365   -3.534042   0.554761 C.3        1 UNL1     0.0372
     60 C         -0.714184   -3.510431   -2.521099 C.2        1 UNL1     -0.0208
     61 C         -1.712251   -4.362072   -2.281697 C.2        1 UNL1     0.0882
     62 H         -4.721645   -1.454663   -1.026376 H        1 UNL1     0.0365
     63 H         -6.283327   -1.356058   -2.338494 H        1 UNL1     0.0576
     64 H         -8.164971   0.986741   -1.654766 H        1 UNL1     0.0615
     65 H         -8.102004   -1.07573   -3.999996 H        1 UNL1     0.0622
     66 H         1.356182   -3.694014   -2.526036 H        1 UNL1     0.0645
     67 H         1.911861   -1.685627   -2.128783 H        1 UNL1     0.0362
     68 H         2.424513   -2.179918   -0.053008 H        1 UNL1     0.0741
     69 H         0.990332   -1.497996   2.069372 H        1 UNL1     0.0359
     70 H         -1.1775   -1.996826   2.295612 H        1 UNL1     0.0600
     71 H         -1.894489   0.012899   1.906203 H        1 UNL1     0.0348
     72 H         -3.457326   -1.176019   0.465349 H        1 UNL1     0.0602
     73 H         -0.72976   -2.906636   -3.394275 H        1 UNL1     0.0628
     74 H         -1.79974   -4.972377   -1.382191 H        1 UNL1     0.1022
     75 H         -11.542065   1.141373   -4.655156 H        1 UNL1     0.0279
     76 H         -10.46782   2.358733   -4.091832 H        1 UNL1     0.0279
     77 H         -10.526915   1.8659   -5.832212 H        1 UNL1     0.0279
     78 H         -8.532719   1.38373   -6.701532 H        1 UNL1     0.1553
     79 H         -7.28502   2.070248   -5.323793 H        1 UNL1     0.1484
     80 H         -3.536376   2.306971   -4.748362 H        1 UNL1     0.0317
     81 H         -4.232193   1.618562   -6.208451 H        1 UNL1     0.0317
     82 H         -6.016138   3.381699   -6.25936 H        1 UNL1     0.0428
     83 H         -4.400556   4.053623   -6.270115 H        1 UNL1     0.0428
     84 H         -6.432733   4.041417   -2.532034 H        1 UNL1     0.0428
     85 H         -7.307117   3.411392   -3.883938 H        1 UNL1     0.0428
     86 H         -6.233939   1.753469   -2.359329 H        1 UNL1     0.0317
     87 H         -4.665955   2.35361   -2.648484 H        1 UNL1     0.0317
     88 H         -6.793162   5.766279   -4.387628 H        1 UNL1     0.0429
     89 H         -5.154051   6.274622   -3.97394 H        1 UNL1     0.0429
     90 H         -5.822235   5.149735   -6.743499 H        1 UNL1     0.0308
     91 H         -6.933151   7.036327   -7.417238 H        1 UNL1     0.0233
     92 H         -7.040833   7.499676   -5.699913 H        1 UNL1     0.0233
     93 H         -5.736145   8.106238   -6.697147 H        1 UNL1     0.0233
     94 H         -3.448538   5.895035   -5.52246 H        1 UNL1     0.0233
     95 H         -3.731554   5.614445   -7.247424 H        1 UNL1     0.0233
     96 H         -3.826072   7.263946   -6.588483 H        1 UNL1     0.0233
     97 H         -3.816425   -5.998387   -7.806166 H        1 UNL1     0.0280
     98 H         -5.110224   -6.804018   -6.961045 H        1 UNL1     0.0280
     99 H         -5.419534   -6.066893   -8.561265 H        1 UNL1     0.0280
     100 H         -7.234435   -3.305933   -9.108537 H        1 UNL1     0.2922
     101 H         -6.214897   -0.614946   1.496291 H        1 UNL1     0.0236
     102 H         -4.945242   -1.898347   1.413111 H        1 UNL1     0.0236
     103 H         -6.489165   -2.102877   0.645018 H        1 UNL1     0.0236
     104 H         -4.398457   1.546779   0.69807 H        1 UNL1     0.2098
     105 H         -1.22878   1.014836   -0.686292 H        1 UNL1     0.0234
     106 H         -0.480678   1.346191   0.901676 H        1 UNL1     0.0234
     107 H         0.0   0.0   0.0 H        1 UNL1     0.0234
     108 H         -2.37332   -2.5697   0.069533 H        1 UNL1     0.2098
     109 H         -0.666909   -1.337241   -2.934736 H        1 UNL1     0.0234
     110 H         -0.446933   -0.128798   -1.629332 H        1 UNL1     0.0234
     111 H         0.645141   -0.17779   -2.968667 H        1 UNL1     0.0234
     112 H         4.037668   1.952838   0.504987 H        1 UNL1     0.0342
     113 H         5.260628   0.711185   0.953212 H        1 UNL1     0.0342
     114 H         4.442097   0.635349   -0.60955 H        1 UNL1     0.0342
     115 H         2.330867   -3.403488   1.881735 H        1 UNL1     0.0234
     116 H         0.754991   -3.89536   2.510593 H        1 UNL1     0.0234
     117 H         1.260595   -4.21586   0.838681 H        1 UNL1     0.0234
     118 H         -1.713033   -2.456625   -5.294174 H        1 UNL1     0.0309
     119 H         -0.772575   -3.93392   -4.918412 H        1 UNL1     0.0309
     120 H         -1.838344   -3.850105   -6.303787 H        1 UNL1     0.0309
     121 H         1.543985   -3.28502   0.840485 H        1 UNL1     0.0524
     122 H         -0.049225   -2.591998   0.511457 H        1 UNL1     0.0524
     123 H         0.073064   -4.18516   1.299253 H        1 UNL1     0.0524
@<TRIPOS>BOND
     1     1     2    1
     2     1    42    1
     3     2     3    2
     4     3     4    1
     5     4     5    2
     6     5     7    1
     7     6    75    1
     8     6    76    1
     9     6    77    1
    10     7     9   am
    11     9    10    1
    12    10    11    2
    13    10    43    1
    14    11    14    1
    15    11    15    1
    16    12    13   ar
    17    12    27   ar
    18    12    43    1
    19    13    14    1
    20    13    30   ar
    21    14    17    2
    22    15    16    1
    23    16    17    1
    24    16    18    1
    25    16    22    1
    26    18    19    1
    27    19    20    1
    28    20    21    1
    29    21    22    1
    30    23    24    1
    31    23    88    1
    32    23    89    1
    33    24    25    1
    34    24    26    1
    35    24    90    1
    36    25    91    1
    37    25    92    1
    38    25    93    1
    39    26    94    1
    40    26    95    1
    41    26    96    1
    42    27    28   ar
    43    28    29   ar
    44    29    30   ar
    45    29    31    1
    46    30    33    1
    47    31    32    1
    48    32    33    1
    49    32    35    1
    50    34    97    1
    51    34    98    1
    52    34    99    1
    53    35    61    1
    54    36    37    1
    55    36    60    1
    56    37    38    1
    57    38    39    1
    58    39    40    1
    59    40    41    1
    60    41    42    1
    61    45   100    1
    62    47   101    1
    63    47   102    1
    64    47   103    1
    65    48   104    1
    66    49   105    1
    67    49   106    1
    68    49   107    1
    69    50   108    1
    70    51    59    1
    71    52   109    1
    72    52   110    1
    73    52   111    1
    74    53    54    1
    75    54    55    2
    76    54    56    1
    77    56   112    1
    78    56   113    1
    79    56   114    1
    80    57   115    1
    81    57   116    1
    82    57   117    1
    83    58   118    1
    84    58   119    1
    85    58   120    1
    86    59   121    1
    87    59   122    1
    88    59   123    1
    89    60    61    2
    90     1    47    1
    91     1    62    1
    92     2    63    1
    93     3    64    1
    94     4    65    1
    95     5     6    1
    96     7     8    2
    97     9    78    1
    98    15    79    1
    99    18    80    1
   100    18    81    1
   101    19    82    1
   102    19    83    1
   103    20    23    1
   104    21    84    1
   105    21    85    1
   106    22    86    1
   107    22    87    1
   108    27    45    1
   109    28    34    1
   110    32    58    1
   111    33    46    2
   112    36    51    1
   113    36    66    1
   114    37    52    1
   115    37    67    1
   116    38    53    1
   117    38    68    1
   118    42    48    1
   119    42    72    1
   120    43    44    2
   121    60    73    1
   122    61    74    1
   123    39    69    1
   124    39    57    1
   125    40    70    1
   126    40    50    1
   127    41    71    1
   128    41    49    1
