@<TRIPOS>MOLECULE
*****
 123 128 0 0 0
SMALL
GASTEIGER

@<TRIPOS>ATOM
     1 C         4.196365   2.858757   2.053607 C.3        1 UNL1     0.0009
     2 C         5.499222   4.133441   1.714817 C.2        1 UNL1     -0.0787
     3 C         6.873232   4.475725   1.413179 C.2        1 UNL1     -0.0649
     4 C         7.511644   6.00361   1.06054 C.2        1 UNL1     -0.0542
     5 C         8.593457   6.701677   0.469388 C.2        1 UNL1     0.0115
     6 C         10.020762   6.539192   -0.121985 C.3        1 UNL1     -0.0348
     7 C         8.399102   8.245628   0.075139 C.2        1 UNL1     0.2441
     8 O         8.844578   9.165296   0.747662 O.2        1 UNL1     -0.2702
     9 N         7.911612   8.464631   -1.22507 N.am        1 UNL1     -0.2772
     10 C         6.535648   8.459378   -1.229244 C.2        1 UNL1     0.1049
     11 C         5.958298   7.272795   -1.28318 C.2        1 UNL1     0.0801
     12 C         4.544838   9.417459   -0.056174 C.ar        1 UNL1     0.0753
     13 C         4.05697   8.075701   0.045215 C.ar        1 UNL1     0.0305
     14 C         4.686481   6.975654   -0.681877 C.2        1 UNL1     0.0924
     15 N         6.487766   6.065676   -1.54596 N.pl3        1 UNL1     -0.3170
     16 C         5.404623   5.124594   -1.652825 C.3        1 UNL1     0.1275
     17 N         4.314616   5.702755   -0.783723 N.2        1 UNL1     -0.2557
     18 C         4.885203   5.193813   -3.085694 C.3        1 UNL1     0.0016
     19 C         6.042415   4.929641   -4.03578 C.3        1 UNL1     0.0026
     20 N         6.597672   3.615567   -3.742645 N.3        1 UNL1     -0.3018
     21 C         7.068305   3.431991   -2.368173 C.3        1 UNL1     0.0026
     22 C         5.888809   3.697724   -1.431119 C.3        1 UNL1     0.0016
     23 C         7.500336   3.142128   -4.773032 C.3        1 UNL1     0.0012
     24 C         6.722454   2.792521   -6.051481 C.3        1 UNL1     -0.0339
     25 C         6.743257   3.95469   -7.057953 C.3        1 UNL1     -0.0615
     26 C         7.2711   1.514547   -6.661851 C.3        1 UNL1     -0.0615
     27 C         3.868884   10.478343   0.54193 C.ar        1 UNL1     0.1347
     28 C         2.678655   10.327031   1.230777 C.ar        1 UNL1     0.0342
     29 C         2.243166   8.991   1.359364 C.ar        1 UNL1     0.1435
     30 C         2.929091   7.914061   0.796398 C.ar        1 UNL1     0.0774
     31 O         1.045679   8.689731   1.90733 O.3        1 UNL1     -0.4436
     32 C         0.758253   7.361978   1.443291 C.3        1 UNL1     0.3143
     33 C         2.106641   6.761663   1.100242 C.2        1 UNL1     0.2504
     34 C         1.772099   11.439196   1.679492 C.3        1 UNL1     -0.0327
     35 O         0.244086   6.623084   2.558154 O.2        1 UNL1     -0.4528
     36 C         -2.131466   4.049649   1.094502 C.3        1 UNL1     0.0854
     37 C         -1.849681   2.932658   0.017261 C.3        1 UNL1     0.0236
     38 C         -2.230517   1.44296   0.472793 C.3        1 UNL1     0.1131
     39 C         -1.703557   0.886152   1.856465 C.3        1 UNL1     0.0200
     40 C         -0.125872   1.151856   2.328428 C.3        1 UNL1     0.0661
     41 C         1.25501   0.864772   1.3859 C.3        1 UNL1     0.0091
     42 C         2.8704   1.733303   1.346265 C.3        1 UNL1     0.0661
     43 C         5.746109   9.653997   -0.894779 C.2        1 UNL1     0.2131
     44 O         6.027686   10.735955   -1.377294 O.2        1 UNL1     -0.2851
     45 O         4.435247   11.746843   0.434326 O.3        1 UNL1     -0.5056
     46 O         2.434397   5.596146   1.099604 O.2        1 UNL1     -0.2836
     47 C         4.356423   2.292684   3.490244 C.3        1 UNL1     -0.0566
     48 O         3.671087   0.485975   1.393056 O.3        1 UNL1     -0.3909
     49 C         0.830606   0.656608   -0.050778 C.3        1 UNL1     -0.0577
     50 O         -0.004919   2.390782   2.997871 O.3        1 UNL1     -0.3910
     51 O         -2.51324   3.59131   2.371846 O.3        1 UNL1     -0.3753
     52 C         -0.566755   3.243171   -0.82097 C.3        1 UNL1     -0.0564
     53 O         -2.287944   0.463789   -0.6631 O.3        1 UNL1     -0.4608
     54 C         -2.210159   -0.899073   -0.542742 C.2        1 UNL1     0.3042
     55 O         -1.294609   -1.630857   -0.917039 O.2        1 UNL1     -0.2512
     56 C         -3.375881   -1.506062   0.184836 C.3        1 UNL1     0.0332
     57 C         -2.855497   1.120815   2.940965 C.3        1 UNL1     -0.0567
     58 C         -0.062407   7.521392   0.142278 C.3        1 UNL1     0.0210
     59 C         -3.311055   4.505268   3.12287 C.3        1 UNL1     0.0372
     60 C         -1.021056   5.019042   1.300485 C.2        1 UNL1     -0.0208
     61 C         -0.495806   5.50549   2.425752 C.2        1 UNL1     0.0882
     62 H         3.452971   3.662687   2.11504 H        1 UNL1     0.0365
     63 H         4.926928   5.05244   1.857615 H        1 UNL1     0.0576
     64 H         7.625494   3.707509   1.220687 H        1 UNL1     0.0615
     65 H         6.717705   6.693209   1.359869 H        1 UNL1     0.0622
     66 H         -2.965661   4.631195   0.677406 H        1 UNL1     0.0645
     67 H         -2.602466   3.121314   -0.767777 H        1 UNL1     0.0362
     68 H         -3.317224   1.561954   0.600979 H        1 UNL1     0.0741
     69 H         -1.768875   -0.193664   1.844687 H        1 UNL1     0.0359
     70 H         -0.036577   0.394255   3.13038 H        1 UNL1     0.0600
     71 H         1.488275   -0.172776   1.695802 H        1 UNL1     0.0348
     72 H         2.407191   1.998185   2.307821 H        1 UNL1     0.0602
     73 H         -0.728914   5.420071   0.361829 H        1 UNL1     0.0628
     74 H         -0.698417   5.110643   3.421886 H        1 UNL1     0.1022
     75 H         10.330571   5.466396   -0.109278 H        1 UNL1     0.0279
     76 H         10.145477   6.806656   -1.168874 H        1 UNL1     0.0279
     77 H         10.797051   6.996515   0.508834 H        1 UNL1     0.0279
     78 H         8.222671   7.713844   -1.837963 H        1 UNL1     0.1553
     79 H         7.370897   5.932459   -2.003415 H        1 UNL1     0.1484
     80 H         4.085967   4.453589   -3.21241 H        1 UNL1     0.0317
     81 H         4.441293   6.173181   -3.294102 H        1 UNL1     0.0317
     82 H         6.814057   5.710281   -3.96449 H        1 UNL1     0.0428
     83 H         5.650327   4.985504   -5.051751 H        1 UNL1     0.0428
     84 H         7.406295   2.413609   -2.1526 H        1 UNL1     0.0428
     85 H         7.945798   4.056184   -2.149755 H        1 UNL1     0.0428
     86 H         6.231598   3.426087   -0.449948 H        1 UNL1     0.0317
     87 H         5.084779   2.977917   -1.627361 H        1 UNL1     0.0317
     88 H         8.208053   3.948977   -5.004175 H        1 UNL1     0.0429
     89 H         8.091581   2.28627   -4.422732 H        1 UNL1     0.0429
     90 H         5.679971   2.575915   -5.78971 H        1 UNL1     0.0308
     91 H         7.767752   4.237417   -7.317908 H        1 UNL1     0.0233
     92 H         6.20311   3.686476   -7.968948 H        1 UNL1     0.0233
     93 H         6.254397   4.85501   -6.666451 H        1 UNL1     0.0233
     94 H         6.855029   1.365747   -7.664138 H        1 UNL1     0.0233
     95 H         8.358657   1.581832   -6.754886 H        1 UNL1     0.0233
     96 H         7.022356   0.64195   -6.051384 H        1 UNL1     0.0233
     97 H         0.873436   11.063687   2.159729 H        1 UNL1     0.0280
     98 H         2.25478   12.094925   2.415898 H        1 UNL1     0.0280
     99 H         1.471401   12.044324   0.808575 H        1 UNL1     0.0280
     100 H         3.860647   12.403557   0.081927 H        1 UNL1     0.2922
     101 H         3.560875   1.576238   3.693872 H        1 UNL1     0.0236
     102 H         4.413054   3.068671   4.252884 H        1 UNL1     0.0236
     103 H         5.289089   1.715791   3.606529 H        1 UNL1     0.0236
     104 H         3.89593   0.31473   2.328519 H        1 UNL1     0.2098
     105 H         0.508597   1.561722   -0.559591 H        1 UNL1     0.0234
     106 H         1.549948   0.114043   -0.664047 H        1 UNL1     0.0234
     107 H         0.0   0.0   0.0 H        1 UNL1     0.0234
     108 H         -0.211356   3.091899   2.350116 H        1 UNL1     0.2098
     109 H         0.329538   3.333807   -0.191561 H        1 UNL1     0.0234
     110 H         -0.384162   2.511534   -1.615394 H        1 UNL1     0.0234
     111 H         -0.653343   4.199201   -1.354313 H        1 UNL1     0.0234
     112 H         -3.241832   -2.589131   0.264444 H        1 UNL1     0.0342
     113 H         -3.524779   -1.057642   1.165954 H        1 UNL1     0.0342
     114 H         -4.283238   -1.321591   -0.406637 H        1 UNL1     0.0342
     115 H         -3.78877   0.612544   2.66195 H        1 UNL1     0.0234
     116 H         -2.590892   0.792005   3.9479 H        1 UNL1     0.0234
     117 H         -3.194222   2.169312   3.003091 H        1 UNL1     0.0234
     118 H         -1.134765   7.687137   0.346201 H        1 UNL1     0.0309
     119 H         0.307611   8.324092   -0.503448 H        1 UNL1     0.0309
     120 H         -0.059265   6.613396   -0.470616 H        1 UNL1     0.0309
     121 H         -2.715918   5.402756   3.289254 H        1 UNL1     0.0524
     122 H         -4.22298   4.807313   2.581393 H        1 UNL1     0.0524
     123 H         -3.595607   4.062676   4.073258 H        1 UNL1     0.0524
@<TRIPOS>BOND
     1     1     2    1
     2     1    42    1
     3     2     3    2
     4     3     4    1
     5     4     5    2
     6     5     7    1
     7     6    75    1
     8     6    76    1
     9     6    77    1
    10     7     9   am
    11     9    10    1
    12    10    11    2
    13    10    43    1
    14    11    14    1
    15    11    15    1
    16    12    13   ar
    17    12    27   ar
    18    12    43    1
    19    13    14    1
    20    13    30   ar
    21    14    17    2
    22    15    16    1
    23    16    17    1
    24    16    18    1
    25    16    22    1
    26    18    19    1
    27    19    20    1
    28    20    21    1
    29    21    22    1
    30    23    24    1
    31    23    88    1
    32    23    89    1
    33    24    25    1
    34    24    26    1
    35    24    90    1
    36    25    91    1
    37    25    92    1
    38    25    93    1
    39    26    94    1
    40    26    95    1
    41    26    96    1
    42    27    28   ar
    43    28    29   ar
    44    29    30   ar
    45    29    31    1
    46    30    33    1
    47    31    32    1
    48    32    33    1
    49    32    35    1
    50    34    97    1
    51    34    98    1
    52    34    99    1
    53    35    61    1
    54    36    37    1
    55    36    60    1
    56    37    38    1
    57    38    39    1
    58    39    40    1
    59    40    41    1
    60    41    42    1
    61    45   100    1
    62    47   101    1
    63    47   102    1
    64    47   103    1
    65    48   104    1
    66    49   105    1
    67    49   106    1
    68    49   107    1
    69    50   108    1
    70    51    59    1
    71    52   109    1
    72    52   110    1
    73    52   111    1
    74    53    54    1
    75    54    55    2
    76    54    56    1
    77    56   112    1
    78    56   113    1
    79    56   114    1
    80    57   115    1
    81    57   116    1
    82    57   117    1
    83    58   118    1
    84    58   119    1
    85    58   120    1
    86    59   121    1
    87    59   122    1
    88    59   123    1
    89    60    61    2
    90     1    47    1
    91     1    62    1
    92     2    63    1
    93     3    64    1
    94     4    65    1
    95     5     6    1
    96     7     8    2
    97     9    78    1
    98    15    79    1
    99    18    80    1
   100    18    81    1
   101    19    82    1
   102    19    83    1
   103    20    23    1
   104    21    84    1
   105    21    85    1
   106    22    86    1
   107    22    87    1
   108    27    45    1
   109    28    34    1
   110    32    58    1
   111    33    46    2
   112    36    51    1
   113    36    66    1
   114    37    52    1
   115    37    67    1
   116    38    53    1
   117    38    68    1
   118    42    48    1
   119    42    72    1
   120    43    44    2
   121    60    73    1
   122    61    74    1
   123    39    69    1
   124    39    57    1
   125    40    70    1
   126    40    50    1
   127    41    71    1
   128    41    49    1
