@<TRIPOS>MOLECULE
*****
 123 128 0 0 0
SMALL
GASTEIGER

@<TRIPOS>ATOM
     1 C         3.428333   1.620667   3.730537 C.3        1 UNL1     0.0009
     2 C         5.125359   2.294085   4.052482 C.2        1 UNL1     -0.0787
     3 C         6.533836   2.079594   4.309839 C.2        1 UNL1     -0.0649
     4 C         7.761026   3.241142   4.415511 C.2        1 UNL1     -0.0542
     5 C         9.158659   3.462924   4.348325 C.2        1 UNL1     0.0115
     6 C         10.541521   2.757545   4.289531 C.3        1 UNL1     -0.0348
     7 C         9.697979   4.957629   4.120336 C.2        1 UNL1     0.2441
     8 O         10.151821   5.646335   5.023795 O.2        1 UNL1     -0.2702
     9 N         9.85653   5.327528   2.773419 N.am        1 UNL1     -0.2772
     10 C         8.683955   5.849577   2.27758 C.2        1 UNL1     0.1049
     11 C         7.786264   4.973919   1.863338 C.2        1 UNL1     0.0801
     12 C         6.885328   7.514144   2.779066 C.ar        1 UNL1     0.0753
     13 C         5.948962   6.46317   2.519681 C.ar        1 UNL1     0.0305
     14 C         6.366944   5.195364   1.925535 C.2        1 UNL1     0.0924
     15 N         7.903707   3.652343   1.648459 N.pl3        1 UNL1     -0.3170
     16 C         6.683466   3.19637   1.037432 C.3        1 UNL1     0.1275
     17 N         5.631554   4.160583   1.528855 N.2        1 UNL1     -0.2557
     18 C         6.81152   3.438204   -0.463508 C.3        1 UNL1     0.0016
     19 C         8.064351   2.737079   -0.963935 C.3        1 UNL1     0.0026
     20 N         7.953615   1.314996   -0.669915 N.3        1 UNL1     -0.3018
     21 C         7.765148   0.985365   0.744366 C.3        1 UNL1     0.0026
     22 C         6.498855   1.696275   1.224997 C.3        1 UNL1     0.0016
     23 C         8.944971   0.516891   -1.363374 C.3        1 UNL1     0.0012
     24 C         10.031143   1.417322   -1.972643 C.3        1 UNL1     -0.0339
     25 C         11.429647   0.79895   -1.811832 C.3        1 UNL1     -0.0615
     26 C         9.711684   1.705984   -3.429145 C.3        1 UNL1     -0.0615
     27 C         6.462831   8.761672   3.232156 C.ar        1 UNL1     0.1347
     28 C         5.132077   9.08785   3.423866 C.ar        1 UNL1     0.0342
     29 C         4.232036   8.022504   3.209091 C.ar        1 UNL1     0.1435
     30 C         4.643876   6.756845   2.789907 C.ar        1 UNL1     0.0774
     31 O         2.894872   8.210889   3.247965 O.3        1 UNL1     -0.4436
     32 C         2.349653   7.087789   2.539265 C.3        1 UNL1     0.3143
     33 C         3.41339   6.011879   2.623487 C.2        1 UNL1     0.2504
     34 C         4.588435   10.468865   3.663347 C.3        1 UNL1     -0.0327
     35 O         1.221511   6.618588   3.287861 O.2        1 UNL1     -0.4528
     36 C         -1.169603   5.129958   0.743328 C.3        1 UNL1     0.0854
     37 C         -0.920604   3.974535   -0.300951 C.3        1 UNL1     0.0236
     38 C         -1.953814   2.751123   -0.214438 C.3        1 UNL1     0.1131
     39 C         -2.231901   2.055321   1.178687 C.3        1 UNL1     0.0200
     40 C         -0.972043   1.703446   2.213762 C.3        1 UNL1     0.0661
     41 C         0.460237   0.89561   1.797126 C.3        1 UNL1     0.0091
     42 C         2.163662   1.078585   2.453072 C.3        1 UNL1     0.0661
     43 C         8.313146   7.260259   2.464209 C.2        1 UNL1     0.2131
     44 O         9.125563   8.144683   2.262936 O.2        1 UNL1     -0.2851
     45 O         7.442117   9.71483   3.504052 O.3        1 UNL1     -0.5056
     46 O         3.274092   4.809827   2.584491 O.2        1 UNL1     -0.2836
     47 C         2.814157   1.0576   5.040393 C.3        1 UNL1     -0.0566
     48 O         2.379828   -0.379457   2.615872 O.3        1 UNL1     -0.3909
     49 C         0.571026   0.844796   0.289599 C.3        1 UNL1     -0.0577
     50 O         -0.678798   2.811272   3.041079 O.3        1 UNL1     -0.3910
     51 O         -2.146025   4.87157   1.726825 O.3        1 UNL1     -0.3753
     52 C         0.60322   3.757709   -0.576442 C.3        1 UNL1     -0.0564
     53 O         -1.921956   1.852046   -1.415675 O.3        1 UNL1     -0.4608
     54 C         -1.506986   0.546019   -1.420549 C.2        1 UNL1     0.3042
     55 O         -0.583428   0.053387   -0.77387 O.2        1 UNL1     -0.2512
     56 C         -2.345594   -0.348222   -2.288755 C.3        1 UNL1     0.0332
     57 C         -3.542036   2.729144   1.801331 C.3        1 UNL1     -0.0567
     58 C         2.20325   7.530234   1.064701 C.3        1 UNL1     0.0210
     59 C         -3.42718   4.504019   1.217498 C.3        1 UNL1     0.0372
     60 C         0.046292   5.603092   1.459502 C.2        1 UNL1     -0.0208
     61 C         0.240012   5.867749   2.752241 C.2        1 UNL1     0.0882
     62 H         3.060447   2.648814   3.629118 H        1 UNL1     0.0365
     63 H         4.9136   3.364181   4.102722 H        1 UNL1     0.0576
     64 H         6.972024   1.079115   4.29802 H        1 UNL1     0.0615
     65 H         7.218394   4.186536   4.500738 H        1 UNL1     0.0622
     66 H         -1.512504   5.980455   0.137424 H        1 UNL1     0.0645
     67 H         -1.195184   4.425565   -1.270352 H        1 UNL1     0.0362
     68 H         -2.885718   3.279093   -0.46806 H        1 UNL1     0.0741
     69 H         -2.671051   1.0828   1.000477 H        1 UNL1     0.0359
     70 H         -1.473604   0.981264   2.886034 H        1 UNL1     0.0600
     71 H         0.168145   -0.1475   2.02856 H        1 UNL1     0.0348
     72 H         1.497986   1.514748   3.211987 H        1 UNL1     0.0602
     73 H         0.796771   5.847843   0.749483 H        1 UNL1     0.0628
     74 H         -0.453857   5.595263   3.54819 H        1 UNL1     0.1022
     75 H         10.432635   1.712175   3.912197 H        1 UNL1     0.0279
     76 H         11.272489   3.179335   3.603348 H        1 UNL1     0.0279
     77 H         10.973321   2.584417   5.286164 H        1 UNL1     0.0279
     78 H         10.085201   4.505949   2.217726 H        1 UNL1     0.1553
     79 H         8.782464   3.184369   1.523084 H        1 UNL1     0.1484
     80 H         5.912888   3.058732   -0.964734 H        1 UNL1     0.0317
     81 H         6.86459   4.509738   -0.684075 H        1 UNL1     0.0317
     82 H         8.975104   3.163637   -0.518413 H        1 UNL1     0.0428
     83 H         8.137311   2.923929   -2.035762 H        1 UNL1     0.0428
     84 H         7.605091   -0.081534   0.928538 H        1 UNL1     0.0428
     85 H         8.653836   1.229042   1.342841 H        1 UNL1     0.0428
     86 H         6.319617   1.328497   2.218275 H        1 UNL1     0.0317
     87 H         5.629955   1.336476   0.660503 H        1 UNL1     0.0317
     88 H         9.41605   -0.153275   -0.632446 H        1 UNL1     0.0429
     89 H         8.481147   -0.117786   -2.12942 H        1 UNL1     0.0429
     90 H         10.018545   2.389077   -1.464955 H        1 UNL1     0.0308
     91 H         11.537871   -0.103583   -2.420785 H        1 UNL1     0.0233
     92 H         12.20397   1.516462   -2.093276 H        1 UNL1     0.0233
     93 H         11.642122   0.510658   -0.775214 H        1 UNL1     0.0233
     94 H         9.754864   0.781856   -4.015625 H        1 UNL1     0.0233
     95 H         8.700625   2.113586   -3.516223 H        1 UNL1     0.0233
     96 H         10.418806   2.421179   -3.858613 H        1 UNL1     0.0233
     97 H         3.575189   10.445932   4.053264 H        1 UNL1     0.0280
     98 H         5.181743   11.025025   4.400862 H        1 UNL1     0.0280
     99 H         4.581414   11.032146   2.715844 H        1 UNL1     0.0280
     100 H         8.292127   9.513772   3.153793 H        1 UNL1     0.2922
     101 H         2.83573   1.823413   5.815455 H        1 UNL1     0.0236
     102 H         3.281688   0.12997   5.368875 H        1 UNL1     0.0236
     103 H         1.746372   0.807992   4.923243 H        1 UNL1     0.0236
     104 H         2.724112   -0.723042   1.768294 H        1 UNL1     0.2098
     105 H         0.162104   1.713469   -0.220305 H        1 UNL1     0.0234
     106 H         1.569342   0.621299   -0.086355 H        1 UNL1     0.0234
     107 H         0.0   0.0   0.0 H        1 UNL1     0.0234
     108 H         0.189747   2.642691   3.454572 H        1 UNL1     0.2098
     109 H         0.820421   3.645719   -1.647887 H        1 UNL1     0.0234
     110 H         1.23348   4.548487   -0.155508 H        1 UNL1     0.0234
     111 H         0.973998   2.840129   -0.100504 H        1 UNL1     0.0234
     112 H         -1.975219   -1.376276   -2.231557 H        1 UNL1     0.0342
     113 H         -3.401819   -0.298407   -2.028464 H        1 UNL1     0.0342
     114 H         -2.242909   -0.010664   -3.329272 H        1 UNL1     0.0342
     115 H         -4.123133   2.014836   2.400729 H        1 UNL1     0.0234
     116 H         -3.338113   3.597107   2.431493 H        1 UNL1     0.0234
     117 H         -4.286676   3.026307   1.042946 H        1 UNL1     0.0234
     118 H         2.819756   8.416815   0.834699 H        1 UNL1     0.0309
     119 H         2.440533   6.734258   0.351734 H        1 UNL1     0.0309
     120 H         1.186752   7.860047   0.823739 H        1 UNL1     0.0309
     121 H         -4.155751   5.208171   1.618386 H        1 UNL1     0.0524
     122 H         -3.474176   4.56787   0.117611 H        1 UNL1     0.0524
     123 H         -3.676794   3.491835   1.522899 H        1 UNL1     0.0524
@<TRIPOS>BOND
     1     1     2    1
     2     1    42    1
     3     2     3    2
     4     3     4    1
     5     4     5    2
     6     5     7    1
     7     6    75    1
     8     6    76    1
     9     6    77    1
    10     7     9   am
    11     9    10    1
    12    10    11    2
    13    10    43    1
    14    11    14    1
    15    11    15    1
    16    12    13   ar
    17    12    27   ar
    18    12    43    1
    19    13    14    1
    20    13    30   ar
    21    14    17    2
    22    15    16    1
    23    16    17    1
    24    16    18    1
    25    16    22    1
    26    18    19    1
    27    19    20    1
    28    20    21    1
    29    21    22    1
    30    23    24    1
    31    23    88    1
    32    23    89    1
    33    24    25    1
    34    24    26    1
    35    24    90    1
    36    25    91    1
    37    25    92    1
    38    25    93    1
    39    26    94    1
    40    26    95    1
    41    26    96    1
    42    27    28   ar
    43    28    29   ar
    44    29    30   ar
    45    29    31    1
    46    30    33    1
    47    31    32    1
    48    32    33    1
    49    32    35    1
    50    34    97    1
    51    34    98    1
    52    34    99    1
    53    35    61    1
    54    36    37    1
    55    36    60    1
    56    37    38    1
    57    38    39    1
    58    39    40    1
    59    40    41    1
    60    41    42    1
    61    45   100    1
    62    47   101    1
    63    47   102    1
    64    47   103    1
    65    48   104    1
    66    49   105    1
    67    49   106    1
    68    49   107    1
    69    50   108    1
    70    51    59    1
    71    52   109    1
    72    52   110    1
    73    52   111    1
    74    53    54    1
    75    54    55    2
    76    54    56    1
    77    56   112    1
    78    56   113    1
    79    56   114    1
    80    57   115    1
    81    57   116    1
    82    57   117    1
    83    58   118    1
    84    58   119    1
    85    58   120    1
    86    59   121    1
    87    59   122    1
    88    59   123    1
    89    60    61    2
    90     1    47    1
    91     1    62    1
    92     2    63    1
    93     3    64    1
    94     4    65    1
    95     5     6    1
    96     7     8    2
    97     9    78    1
    98    15    79    1
    99    18    80    1
   100    18    81    1
   101    19    82    1
   102    19    83    1
   103    20    23    1
   104    21    84    1
   105    21    85    1
   106    22    86    1
   107    22    87    1
   108    27    45    1
   109    28    34    1
   110    32    58    1
   111    33    46    2
   112    36    51    1
   113    36    66    1
   114    37    52    1
   115    37    67    1
   116    38    53    1
   117    38    68    1
   118    42    48    1
   119    42    72    1
   120    43    44    2
   121    60    73    1
   122    61    74    1
   123    39    69    1
   124    39    57    1
   125    40    70    1
   126    40    50    1
   127    41    71    1
   128    41    49    1
