@<TRIPOS>MOLECULE
*****
 123 128 0 0 0
SMALL
GASTEIGER

@<TRIPOS>ATOM
     1 C         5.163831   1.760366   0.485004 C.3        1 UNL1     0.0009
     2 C         6.600246   2.562755   -0.36935 C.2        1 UNL1     -0.0787
     3 C         7.883058   2.461923   -1.032881 C.2        1 UNL1     -0.0649
     4 C         8.759447   3.693098   -1.796104 C.2        1 UNL1     -0.0542
     5 C         9.780112   3.980758   -2.735557 C.2        1 UNL1     0.0115
     6 C         10.910308   3.351036   -3.595459 C.3        1 UNL1     -0.0348
     7 C         9.873829   5.459868   -3.352354 C.2        1 UNL1     0.2441
     8 O         10.695976   6.285449   -2.979504 O.2        1 UNL1     -0.2702
     9 N         9.124657   5.657423   -4.525327 N.am        1 UNL1     -0.2772
     10 C         7.840968   6.044269   -4.215786 C.2        1 UNL1     0.1049
     11 C         6.996369   5.073594   -3.91802 C.2        1 UNL1     0.0801
     12 C         6.538396   7.658732   -2.817877 C.ar        1 UNL1     0.0753
     13 C         5.780589   6.532788   -2.363359 C.ar        1 UNL1     0.0305
     14 C         5.900331   5.222774   -2.999422 C.2        1 UNL1     0.0924
     15 N         7.121266   3.743727   -4.067627 N.pl3        1 UNL1     -0.3170
     16 C         5.851983   3.144771   -3.750726 C.3        1 UNL1     0.1275
     17 N         5.212932   4.105856   -2.778279 N.2        1 UNL1     -0.2557
     18 C         5.000526   3.193618   -5.01577 C.3        1 UNL1     0.0016
     19 C         5.757805   2.502812   -6.13867 C.3        1 UNL1     0.0026
     20 N         6.029661   1.127882   -5.742827 N.3        1 UNL1     -0.3018
     21 C         6.791815   0.977402   -4.501519 C.3        1 UNL1     0.0026
     22 C         6.010671   1.674545   -3.386307 C.3        1 UNL1     0.0016
     23 C         6.476758   0.301276   -6.846218 C.3        1 UNL1     0.0012
     24 C         5.322859   0.043083   -7.827854 C.3        1 UNL1     -0.0339
     25 C         5.358383   1.027017   -9.008815 C.3        1 UNL1     -0.0615
     26 C         5.354791   -1.399727   -8.301204 C.3        1 UNL1     -0.0615
     27 C         6.33111   8.929859   -2.287418 C.ar        1 UNL1     0.1347
     28 C         5.370504   9.204627   -1.330449 C.ar        1 UNL1     0.0342
     29 C         4.670189   8.072331   -0.862873 C.ar        1 UNL1     0.1435
     30 C         4.89224   6.787134   -1.359039 C.ar        1 UNL1     0.0774
     31 O         3.628021   8.190245   -0.011409 O.3        1 UNL1     -0.4436
     32 C         2.90845   6.955317   -0.145739 C.3        1 UNL1     0.3143
     33 C         3.923929   5.960101   -0.669722 C.2        1 UNL1     0.2504
     34 C         4.921003   10.573085   -0.899903 C.3        1 UNL1     -0.0327
     35 O         2.546963   6.527307   1.173119 O.2        1 UNL1     -0.4528
     36 C         -0.692576   4.587257   0.786226 C.3        1 UNL1     0.0854
     37 C         -0.994852   3.319916   -0.102592 C.3        1 UNL1     0.0236
     38 C         -1.594342   2.063494   0.693497 C.3        1 UNL1     0.1131
     39 C         -0.869268   1.542869   1.99944 C.3        1 UNL1     0.0200
     40 C         0.792102   1.400242   2.043548 C.3        1 UNL1     0.0661
     41 C         1.75404   0.624731   0.881279 C.3        1 UNL1     0.0091
     42 C         3.461711   0.986012   0.31671 C.3        1 UNL1     0.0661
     43 C         7.490069   7.444655   -3.936246 C.2        1 UNL1     0.2131
     44 O         7.889376   8.338289   -4.660614 O.2        1 UNL1     -0.2851
     45 O         7.142282   9.962999   -2.752241 O.3        1 UNL1     -0.5056
     46 O         3.941658   4.757543   -0.530463 O.2        1 UNL1     -0.2836
     47 C         5.559194   1.341642   1.926649 C.3        1 UNL1     -0.0566
     48 O         3.912396   -0.423773   0.408939 O.3        1 UNL1     -0.3909
     49 C         0.921662   0.382107   -0.357984 C.3        1 UNL1     -0.0577
     50 O         1.389929   2.621784   2.428465 O.3        1 UNL1     -0.3910
     51 O         -0.817984   4.407181   2.178806 O.3        1 UNL1     -0.3753
     52 C         0.051193   3.15299   -1.252755 C.3        1 UNL1     -0.0564
     53 O         -2.194266   1.017255   -0.1997 O.3        1 UNL1     -0.4608
     54 C         -2.427018   -0.287443   0.148898 C.2        1 UNL1     0.3042
     55 O         -1.855843   -1.28873   -0.281245 O.2        1 UNL1     -0.2512
     56 C         -3.468018   -0.447186   1.220118 C.3        1 UNL1     0.0332
     57 C         -1.59281   2.219583   3.255115 C.3        1 UNL1     -0.0567
     58 C         1.834131   7.191075   -1.232839 C.3        1 UNL1     0.0210
     59 C         -1.133891   5.59087   2.910208 C.3        1 UNL1     0.0372
     60 C         0.635698   5.216799   0.552715 C.2        1 UNL1     -0.0208
     61 C         1.546939   5.659581   1.420083 C.2        1 UNL1     0.0882
     62 H         4.686266   2.744376   0.564794 H        1 UNL1     0.0365
     63 H         6.332223   3.616848   -0.271775 H        1 UNL1     0.0576
     64 H         8.342484   1.494265   -1.246589 H        1 UNL1     0.0615
     65 H         8.270527   4.610144   -1.4563 H        1 UNL1     0.0622
     66 H         -1.438037   5.330407   0.4699 H        1 UNL1     0.0645
     67 H         -1.860176   3.623605   -0.717042 H        1 UNL1     0.0362
     68 H         -2.542503   2.501342   1.041063 H        1 UNL1     0.0741
     69 H         -1.19943   0.53265   2.201578 H        1 UNL1     0.0359
     70 H         0.903893   0.746311   2.929514 H        1 UNL1     0.0600
     71 H         1.79873   -0.393332   1.315453 H        1 UNL1     0.0348
     72 H         3.353931   1.480937   1.292798 H        1 UNL1     0.0602
     73 H         0.754482   5.406929   -0.485066 H        1 UNL1     0.0628
     74 H         1.528487   5.45643   2.491356 H        1 UNL1     0.1022
     75 H         10.956345   2.246933   -3.434608 H        1 UNL1     0.0279
     76 H         10.797792   3.426046   -4.67471 H        1 UNL1     0.0279
     77 H         11.914525   3.659617   -3.269844 H        1 UNL1     0.0279
     78 H         9.064627   4.783703   -5.044061 H        1 UNL1     0.1553
     79 H         7.787919   3.312447   -4.681226 H        1 UNL1     0.1484
     80 H         4.039792   2.70255   -4.81928 H        1 UNL1     0.0317
     81 H         4.772605   4.228078   -5.294332 H        1 UNL1     0.0317
     82 H         6.68792   3.033819   -6.38933 H        1 UNL1     0.0428
     83 H         5.133597   2.550686   -7.031487 H        1 UNL1     0.0428
     84 H         6.913413   -0.063155   -4.18487 H        1 UNL1     0.0428
     85 H         7.821449   1.346317   -4.606751 H        1 UNL1     0.0428
     86 H         6.526437   1.431401   -2.475893 H        1 UNL1     0.0317
     87 H         5.031832   1.196259   -3.258973 H        1 UNL1     0.0317
     88 H         7.272578   0.840597   -7.376403 H        1 UNL1     0.0429
     89 H         6.91043   -0.641317   -6.488139 H        1 UNL1     0.0429
     90 H         4.369031   0.164381   -7.30087 H        1 UNL1     0.0308
     91 H         6.312248   0.973974   -9.542136 H        1 UNL1     0.0233
     92 H         4.544615   0.820832   -9.708013 H        1 UNL1     0.0233
     93 H         5.230246   2.068208   -8.688913 H        1 UNL1     0.0233
     94 H         4.661476   -1.538183   -9.137852 H        1 UNL1     0.0233
     95 H         6.359102   -1.656516   -8.6496 H        1 UNL1     0.0233
     96 H         5.07203   -2.088764   -7.500427 H        1 UNL1     0.0233
     97 H         4.120604   10.527349   -0.167441 H        1 UNL1     0.0280
     98 H         5.729892   11.144272   -0.425876 H        1 UNL1     0.0280
     99 H         4.556249   11.134263   -1.775762 H        1 UNL1     0.0280
     100 H         6.674457   10.711112   -3.079487 H        1 UNL1     0.2922
     101 H         4.696481   0.910214   2.433849 H        1 UNL1     0.0236
     102 H         6.008043   2.151759   2.500434 H        1 UNL1     0.0236
     103 H         6.316703   0.540179   1.932074 H        1 UNL1     0.0236
     104 H         4.330804   -0.543028   1.283972 H        1 UNL1     0.2098
     105 H         0.708265   1.276536   -0.937872 H        1 UNL1     0.0234
     106 H         1.293043   -0.409938   -1.008113 H        1 UNL1     0.0234
     107 H         0.0   -0.0   0.0 H        1 UNL1     0.0234
     108 H         1.191745   3.274629   1.729691 H        1 UNL1     0.2098
     109 H         1.075766   3.043817   -0.8706 H        1 UNL1     0.0234
     110 H         -0.179167   2.320753   -1.926594 H        1 UNL1     0.0234
     111 H         0.071751   4.03121   -1.911735 H        1 UNL1     0.0234
     112 H         -3.598979   -1.507495   1.456634 H        1 UNL1     0.0342
     113 H         -3.226822   0.125681   2.114261 H        1 UNL1     0.0342
     114 H         -4.422816   -0.068765   0.829832 H        1 UNL1     0.0342
     115 H         -2.662086   1.969893   3.29375 H        1 UNL1     0.0234
     116 H         -1.157021   1.947297   4.218441 H        1 UNL1     0.0234
     117 H         -1.633084   3.321006   3.198669 H        1 UNL1     0.0234
     118 H         0.931197   7.678045   -0.8247 H        1 UNL1     0.0309
     119 H         2.20312   7.77496   -2.082032 H        1 UNL1     0.0309
     120 H         1.448622   6.255559   -1.652719 H        1 UNL1     0.0309
     121 H         -0.31379   6.294347   2.769099 H        1 UNL1     0.0524
     122 H         -2.054037   6.075894   2.543984 H        1 UNL1     0.0524
     123 H         -1.252701   5.36038   3.965126 H        1 UNL1     0.0524
@<TRIPOS>BOND
     1     1     2    1
     2     1    42    1
     3     2     3    2
     4     3     4    1
     5     4     5    2
     6     5     7    1
     7     6    75    1
     8     6    76    1
     9     6    77    1
    10     7     9   am
    11     9    10    1
    12    10    11    2
    13    10    43    1
    14    11    14    1
    15    11    15    1
    16    12    13   ar
    17    12    27   ar
    18    12    43    1
    19    13    14    1
    20    13    30   ar
    21    14    17    2
    22    15    16    1
    23    16    17    1
    24    16    18    1
    25    16    22    1
    26    18    19    1
    27    19    20    1
    28    20    21    1
    29    21    22    1
    30    23    24    1
    31    23    88    1
    32    23    89    1
    33    24    25    1
    34    24    26    1
    35    24    90    1
    36    25    91    1
    37    25    92    1
    38    25    93    1
    39    26    94    1
    40    26    95    1
    41    26    96    1
    42    27    28   ar
    43    28    29   ar
    44    29    30   ar
    45    29    31    1
    46    30    33    1
    47    31    32    1
    48    32    33    1
    49    32    35    1
    50    34    97    1
    51    34    98    1
    52    34    99    1
    53    35    61    1
    54    36    37    1
    55    36    60    1
    56    37    38    1
    57    38    39    1
    58    39    40    1
    59    40    41    1
    60    41    42    1
    61    45   100    1
    62    47   101    1
    63    47   102    1
    64    47   103    1
    65    48   104    1
    66    49   105    1
    67    49   106    1
    68    49   107    1
    69    50   108    1
    70    51    59    1
    71    52   109    1
    72    52   110    1
    73    52   111    1
    74    53    54    1
    75    54    55    2
    76    54    56    1
    77    56   112    1
    78    56   113    1
    79    56   114    1
    80    57   115    1
    81    57   116    1
    82    57   117    1
    83    58   118    1
    84    58   119    1
    85    58   120    1
    86    59   121    1
    87    59   122    1
    88    59   123    1
    89    60    61    2
    90     1    47    1
    91     1    62    1
    92     2    63    1
    93     3    64    1
    94     4    65    1
    95     5     6    1
    96     7     8    2
    97     9    78    1
    98    15    79    1
    99    18    80    1
   100    18    81    1
   101    19    82    1
   102    19    83    1
   103    20    23    1
   104    21    84    1
   105    21    85    1
   106    22    86    1
   107    22    87    1
   108    27    45    1
   109    28    34    1
   110    32    58    1
   111    33    46    2
   112    36    51    1
   113    36    66    1
   114    37    52    1
   115    37    67    1
   116    38    53    1
   117    38    68    1
   118    42    48    1
   119    42    72    1
   120    43    44    2
   121    60    73    1
   122    61    74    1
   123    39    69    1
   124    39    57    1
   125    40    70    1
   126    40    50    1
   127    41    71    1
   128    41    49    1
