@<TRIPOS>MOLECULE
*****
 123 128 0 0 0
SMALL
GASTEIGER

@<TRIPOS>ATOM
     1 C         -1.706393   2.845564   -2.535539 C.3        1 UNL1     0.0009
     2 C         -3.21662   3.872716   -2.217407 C.2        1 UNL1     -0.0787
     3 C         -4.624987   4.134173   -2.427621 C.2        1 UNL1     -0.0649
     4 C         -5.588716   5.307329   -1.678428 C.2        1 UNL1     -0.0542
     5 C         -6.915491   5.693113   -1.365512 C.2        1 UNL1     0.0115
     6 C         -8.412533   5.380269   -1.638123 C.3        1 UNL1     -0.0348
     7 C         -7.156136   6.78085   -0.209697 C.2        1 UNL1     0.2441
     8 O         -7.41782   7.95287   -0.442971 O.2        1 UNL1     -0.2702
     9 N         -7.304403   6.245224   1.081533 N.am        1 UNL1     -0.2772
     10 C         -6.077333   6.11068   1.689413 C.2        1 UNL1     0.1049
     11 C         -5.394307   5.021513   1.387066 C.2        1 UNL1     0.0801
     12 C         -3.959877   7.349164   2.179179 C.ar        1 UNL1     0.0753
     13 C         -3.266311   6.217355   1.643846 C.ar        1 UNL1     0.0305
     14 C         -3.958051   4.963741   1.352299 C.2        1 UNL1     0.0924
     15 N         -5.783818   3.909183   0.740899 N.pl3        1 UNL1     -0.3170
     16 C         -4.711125   2.953905   0.824728 C.3        1 UNL1     0.1275
     17 N         -3.464753   3.795475   0.951378 N.2        1 UNL1     -0.2557
     18 C         -4.862778   2.219143   2.153196 C.3        1 UNL1     0.0016
     19 C         -6.253682   1.608286   2.215083 C.3        1 UNL1     0.0026
     20 N         -6.414663   0.696682   1.090765 N.3        1 UNL1     -0.3018
     21 C         -6.22573   1.299444   -0.230352 C.3        1 UNL1     0.0026
     22 C         -4.820684   1.902776   -0.271936 C.3        1 UNL1     0.0016
     23 C         -7.578652   -0.157277   1.219333 C.3        1 UNL1     0.0012
     24 C         -8.824606   0.541574   0.652799 C.3        1 UNL1     -0.0339
     25 C         -9.638509   -0.402553   -0.247335 C.3        1 UNL1     -0.0615
     26 C         -9.668725   1.099904   1.785279 C.3        1 UNL1     -0.0615
     27 C         -3.274783   8.498123   2.567326 C.ar        1 UNL1     0.1347
     28 C         -1.897845   8.61728   2.504921 C.ar        1 UNL1     0.0342
     29 C         -1.240478   7.509348   1.929144 C.ar        1 UNL1     0.1435
     30 C         -1.917079   6.365962   1.502414 C.ar        1 UNL1     0.0774
     31 O         0.107618   7.427241   1.899106 O.3        1 UNL1     -0.4436
     32 C         0.381665   6.031873   1.702332 C.3        1 UNL1     0.3143
     33 C         -0.869961   5.469118   1.059717 C.2        1 UNL1     0.2504
     34 C         -1.078164   9.710642   3.131646 C.3        1 UNL1     -0.0327
     35 O         1.429192   5.93658   0.729266 O.2        1 UNL1     -0.4528
     36 C         3.345356   2.76957   1.569776 C.3        1 UNL1     0.0854
     37 C         2.819043   1.28713   1.683294 C.3        1 UNL1     0.0236
     38 C         3.590145   0.223857   0.763187 C.3        1 UNL1     0.1131
     39 C         3.792609   0.519757   -0.777501 C.3        1 UNL1     0.0200
     40 C         2.540917   1.137484   -1.690801 C.3        1 UNL1     0.0661
     41 C         0.957263   0.531899   -1.744801 C.3        1 UNL1     0.0091
     42 C         -0.640553   1.398864   -1.991292 C.3        1 UNL1     0.0661
     43 C         -5.42349   7.225502   2.39085 C.2        1 UNL1     0.2131
     44 O         -6.051922   7.919331   3.169575 O.2        1 UNL1     -0.2851
     45 O         -4.02926   9.571799   3.03575 O.3        1 UNL1     -0.5056
     46 O         -0.975613   4.5097   0.328822 O.2        1 UNL1     -0.2836
     47 C         -1.152668   3.127036   -3.958263 C.3        1 UNL1     -0.0566
     48 O         -1.135145   0.438619   -3.007376 O.3        1 UNL1     -0.3909
     49 C         0.763741   -0.431517   -0.595074 C.3        1 UNL1     -0.0577
     50 O         2.5163   2.548793   -1.617822 O.3        1 UNL1     -0.3910
     51 O         4.298187   3.009292   0.558797 O.3        1 UNL1     -0.3753
     52 C         1.270836   1.23406   1.895876 C.3        1 UNL1     -0.0564
     53 O         3.319709   -1.203609   1.139392 O.3        1 UNL1     -0.4608
     54 C         3.187535   -2.246278   0.260016 C.2        1 UNL1     0.3042
     55 O         2.656581   -2.224656   -0.849695 O.2        1 UNL1     -0.2512
     56 C         3.830347   -3.518405   0.734567 C.3        1 UNL1     0.0332
     57 C         5.240216   1.175959   -0.956412 C.3        1 UNL1     -0.0567
     58 C         0.539965   5.414264   3.111242 C.3        1 UNL1     0.0210
     59 C         5.627054   3.232029   1.028226 C.3        1 UNL1     0.0372
     60 C         2.285571   3.802971   1.414537 C.2        1 UNL1     -0.0208
     61 C         2.213122   4.850066   0.591684 C.2        1 UNL1     0.0882
     62 H         -1.146119   3.490965   -1.848327 H        1 UNL1     0.0365
     63 H         -2.793215   4.674039   -1.608244 H        1 UNL1     0.0576
     64 H         -5.254165   3.451754   -3.003421 H        1 UNL1     0.0615
     65 H         -4.86468   5.974693   -1.20316 H        1 UNL1     0.0622
     66 H         3.820622   2.968835   2.540581 H        1 UNL1     0.0645
     67 H         3.129608   0.969019   2.693698 H        1 UNL1     0.0362
     68 H         4.594921   0.290532   1.2076 H        1 UNL1     0.0741
     69 H         4.019303   -0.409234   -1.28346 H        1 UNL1     0.0359
     70 H         2.920963   0.919662   -2.707256 H        1 UNL1     0.0600
     71 H         1.046318   -0.16614   -2.600235 H        1 UNL1     0.0348
     72 H         0.135706   2.080806   -2.367712 H        1 UNL1     0.0602
     73 H         1.564723   3.682414   2.184662 H        1 UNL1     0.0628
     74 H         2.877307   5.014091   -0.257547 H        1 UNL1     0.1022
     75 H         -8.761003   5.904778   -2.560345 H        1 UNL1     0.0279
     76 H         -8.660412   4.342788   -1.850861 H        1 UNL1     0.0279
     77 H         -9.081926   5.809744   -0.878409 H        1 UNL1     0.0279
     78 H         -7.719867   5.317933   1.021548 H        1 UNL1     0.1553
     79 H         -6.743449   3.640253   0.623776 H        1 UNL1     0.1484
     80 H         -4.084075   1.450468   2.227543 H        1 UNL1     0.0317
     81 H         -4.711711   2.900991   2.996945 H        1 UNL1     0.0317
     82 H         -7.037614   2.379884   2.214433 H        1 UNL1     0.0428
     83 H         -6.341064   1.090853   3.170947 H        1 UNL1     0.0428
     84 H         -6.272984   0.578352   -1.052303 H        1 UNL1     0.0428
     85 H         -7.016983   2.024576   -0.465767 H        1 UNL1     0.0428
     86 H         -4.669333   2.214329   -1.288802 H        1 UNL1     0.0317
     87 H         -4.070294   1.114829   -0.133553 H        1 UNL1     0.0317
     88 H         -7.396993   -1.071805   0.639736 H        1 UNL1     0.0429
     89 H         -7.735715   -0.463036   2.261742 H        1 UNL1     0.0429
     90 H         -8.511319   1.407542   0.057682 H        1 UNL1     0.0308
     91 H         -9.535879   -1.443798   0.072629 H        1 UNL1     0.0233
     92 H         -10.695826   -0.127541   -0.2396 H        1 UNL1     0.0233
     93 H         -9.318848   -0.358875   -1.295545 H        1 UNL1     0.0233
     94 H         -10.645194   0.604113   1.808425 H        1 UNL1     0.0233
     95 H         -9.175277   0.91761   2.74405 H        1 UNL1     0.0233
     96 H         -9.829887   2.175415   1.670083 H        1 UNL1     0.0233
     97 H         -1.213316   10.66208   2.625947 H        1 UNL1     0.0280
     98 H         -1.353907   9.885568   4.179798 H        1 UNL1     0.0280
     99 H         -0.009706   9.443499   3.085527 H        1 UNL1     0.0280
     100 H         -4.204578   9.553392   3.960167 H        1 UNL1     0.2922
     101 H         -0.111214   2.811391   -4.016554 H        1 UNL1     0.0236
     102 H         -1.284612   4.161809   -4.272616 H        1 UNL1     0.0236
     103 H         -1.669272   2.531119   -4.729104 H        1 UNL1     0.0236
     104 H         -0.357302   -0.011986   -3.390634 H        1 UNL1     0.2098
     105 H         0.433787   -1.424027   -0.891495 H        1 UNL1     0.0234
     106 H         1.611129   -0.50305   0.086648 H        1 UNL1     0.0234
     107 H         0.0   0.0   0.0 H        1 UNL1     0.0234
     108 H         1.656481   2.804354   -1.2316 H        1 UNL1     0.2098
     109 H         0.960267   1.740834   2.820234 H        1 UNL1     0.0234
     110 H         0.706003   1.638214   1.048901 H        1 UNL1     0.0234
     111 H         0.910104   0.200917   1.987712 H        1 UNL1     0.0234
     112 H         3.605058   -3.676662   1.793597 H        1 UNL1     0.0342
     113 H         3.527436   -4.377615   0.138037 H        1 UNL1     0.0342
     114 H         4.919167   -3.410778   0.634305 H        1 UNL1     0.0342
     115 H         5.589643   1.653024   -0.0304 H        1 UNL1     0.0234
     116 H         6.011113   0.470897   -1.273672 H        1 UNL1     0.0234
     117 H         5.252514   2.030802   -1.65429 H        1 UNL1     0.0234
     118 H         1.049543   6.100663   3.80995 H        1 UNL1     0.0309
     119 H         -0.411095   5.097003   3.550597 H        1 UNL1     0.0309
     120 H         1.184739   4.528615   3.111955 H        1 UNL1     0.0309
     121 H         5.775533   4.309208   1.098906 H        1 UNL1     0.0524
     122 H         5.792693   2.807495   2.032404 H        1 UNL1     0.0524
     123 H         6.346606   2.79888   0.339227 H        1 UNL1     0.0524
@<TRIPOS>BOND
     1     1     2    1
     2     1    42    1
     3     2     3    2
     4     3     4    1
     5     4     5    2
     6     5     7    1
     7     6    75    1
     8     6    76    1
     9     6    77    1
    10     7     9   am
    11     9    10    1
    12    10    11    2
    13    10    43    1
    14    11    14    1
    15    11    15    1
    16    12    13   ar
    17    12    27   ar
    18    12    43    1
    19    13    14    1
    20    13    30   ar
    21    14    17    2
    22    15    16    1
    23    16    17    1
    24    16    18    1
    25    16    22    1
    26    18    19    1
    27    19    20    1
    28    20    21    1
    29    21    22    1
    30    23    24    1
    31    23    88    1
    32    23    89    1
    33    24    25    1
    34    24    26    1
    35    24    90    1
    36    25    91    1
    37    25    92    1
    38    25    93    1
    39    26    94    1
    40    26    95    1
    41    26    96    1
    42    27    28   ar
    43    28    29   ar
    44    29    30   ar
    45    29    31    1
    46    30    33    1
    47    31    32    1
    48    32    33    1
    49    32    35    1
    50    34    97    1
    51    34    98    1
    52    34    99    1
    53    35    61    1
    54    36    37    1
    55    36    60    1
    56    37    38    1
    57    38    39    1
    58    39    40    1
    59    40    41    1
    60    41    42    1
    61    45   100    1
    62    47   101    1
    63    47   102    1
    64    47   103    1
    65    48   104    1
    66    49   105    1
    67    49   106    1
    68    49   107    1
    69    50   108    1
    70    51    59    1
    71    52   109    1
    72    52   110    1
    73    52   111    1
    74    53    54    1
    75    54    55    2
    76    54    56    1
    77    56   112    1
    78    56   113    1
    79    56   114    1
    80    57   115    1
    81    57   116    1
    82    57   117    1
    83    58   118    1
    84    58   119    1
    85    58   120    1
    86    59   121    1
    87    59   122    1
    88    59   123    1
    89    60    61    2
    90     1    47    1
    91     1    62    1
    92     2    63    1
    93     3    64    1
    94     4    65    1
    95     5     6    1
    96     7     8    2
    97     9    78    1
    98    15    79    1
    99    18    80    1
   100    18    81    1
   101    19    82    1
   102    19    83    1
   103    20    23    1
   104    21    84    1
   105    21    85    1
   106    22    86    1
   107    22    87    1
   108    27    45    1
   109    28    34    1
   110    32    58    1
   111    33    46    2
   112    36    51    1
   113    36    66    1
   114    37    52    1
   115    37    67    1
   116    38    53    1
   117    38    68    1
   118    42    48    1
   119    42    72    1
   120    43    44    2
   121    60    73    1
   122    61    74    1
   123    39    69    1
   124    39    57    1
   125    40    70    1
   126    40    50    1
   127    41    71    1
   128    41    49    1
