@<TRIPOS>MOLECULE
*****
 123 128 0 0 0
SMALL
GASTEIGER

@<TRIPOS>ATOM
     1 C         -3.662121   -0.34024   -1.875746 C.3        1 UNL1     0.0009
     2 C         -5.084299   -1.435472   -1.412159 C.2        1 UNL1     -0.0787
     3 C         -5.812742   -2.677968   -1.559194 C.2        1 UNL1     -0.0649
     4 C         -7.145986   -3.214713   -0.664362 C.2        1 UNL1     -0.0542
     5 C         -7.906768   -4.346311   -0.27995 C.2        1 UNL1     0.0115
     6 C         -8.13193   -5.859622   -0.549237 C.3        1 UNL1     -0.0348
     7 C         -8.878878   -4.233084   0.992517 C.2        1 UNL1     0.2441
     8 O         -10.090278   -4.093942   0.894151 O.2        1 UNL1     -0.2702
     9 N         -8.281969   -4.565318   2.221123 N.am        1 UNL1     -0.2772
     10 C         -7.687966   -3.457836   2.781451 C.2        1 UNL1     0.1049
     11 C         -6.475896   -3.164722   2.346489 C.2        1 UNL1     0.0801
     12 C         -8.105221   -1.058382   3.352286 C.ar        1 UNL1     0.0753
     13 C         -6.875392   -0.766199   2.680901 C.ar        1 UNL1     0.0305
     14 C         -5.956591   -1.826037   2.271512 C.2        1 UNL1     0.0924
     15 N         -5.630188   -3.888117   1.592828 N.pl3        1 UNL1     -0.3170
     16 C         -4.373967   -3.188079   1.546919 C.3        1 UNL1     0.1275
     17 N         -4.743088   -1.736775   1.734511 N.2        1 UNL1     -0.2557
     18 C         -3.587117   -3.589135   2.790994 C.3        1 UNL1     0.0016
     19 C         -3.460955   -5.104019   2.819256 C.3        1 UNL1     0.0026
     20 N         -2.781834   -5.539548   1.606764 N.3        1 UNL1     -0.3018
     21 C         -3.431789   -5.146537   0.354777 C.3        1 UNL1     0.0026
     22 C         -3.544029   -3.621017   0.345539 C.3        1 UNL1     0.0016
     23 C         -2.34602   -6.920408   1.669505 C.3        1 UNL1     0.0012
     24 C         -1.718741   -7.225548   3.038872 C.3        1 UNL1     -0.0339
     25 C         -1.056745   -5.977145   3.644933 C.3        1 UNL1     -0.0615
     26 C         -2.764087   -7.812414   3.971406 C.3        1 UNL1     -0.0615
     27 C         -8.917287   -0.040322   3.846473 C.ar        1 UNL1     0.1347
     28 C         -8.586489   1.300546   3.764647 C.ar        1 UNL1     0.0342
     29 C         -7.395356   1.566865   3.056522 C.ar        1 UNL1     0.1435
     30 C         -6.590006   0.559159   2.524394 C.ar        1 UNL1     0.0774
     31 O         -6.881467   2.814226   2.985698 O.3        1 UNL1     -0.4436
     32 C         -5.503827   2.619356   2.632138 C.3        1 UNL1     0.3143
     33 C         -5.455097   1.261054   1.962173 C.2        1 UNL1     0.2504
     34 C         -9.276095   2.424462   4.486697 C.3        1 UNL1     -0.0327
     35 O         -5.179763   3.590769   1.629845 O.2        1 UNL1     -0.4528
     36 C         -1.488418   4.35446   2.075756 C.3        1 UNL1     0.0854
     37 C         -0.256096   3.370775   2.040146 C.3        1 UNL1     0.0236
     38 C         0.892245   3.76369   0.991968 C.3        1 UNL1     0.1131
     39 C         0.510541   4.071998   -0.511866 C.3        1 UNL1     0.0200
     40 C         -0.578791   3.103299   -1.32268 C.3        1 UNL1     0.0661
     41 C         -0.533295   1.409529   -1.40443 C.3        1 UNL1     0.0091
     42 C         -1.896007   0.186547   -1.517277 C.3        1 UNL1     0.0661
     43 C         -8.443616   -2.484582   3.584024 C.2        1 UNL1     0.2131
     44 O         -9.214169   -2.861669   4.448195 O.2        1 UNL1     -0.2851
     45 O         -10.119815   -0.408197   4.4465 O.3        1 UNL1     -0.5056
     46 O         -4.66961   0.857004   1.134159 O.2        1 UNL1     -0.2836
     47 C         -3.902583   0.29371   -3.272265 C.3        1 UNL1     -0.0566
     48 O         -1.268199   -0.581542   -2.619553 O.3        1 UNL1     -0.3909
     49 C         0.434806   0.896467   -0.361817 C.3        1 UNL1     -0.0577
     50 O         -1.903624   3.540694   -1.096349 O.3        1 UNL1     -0.3910
     51 O         -1.513946   5.346469   1.074407 O.3        1 UNL1     -0.3753
     52 C         -0.688275   1.887721   2.282465 C.3        1 UNL1     -0.0564
     53 O         2.18549   3.036319   1.217301 O.3        1 UNL1     -0.4608
     54 C         3.352647   3.259488   0.534755 C.2        1 UNL1     0.3042
     55 O         3.477849   3.569052   -0.649447 O.2        1 UNL1     -0.2512
     56 C         4.580918   3.154173   1.393226 C.3        1 UNL1     0.0332
     57 C         0.347407   5.656827   -0.652852 C.3        1 UNL1     -0.0567
     58 C         -4.716881   2.54844   3.961506 C.3        1 UNL1     0.0210
     59 C         -0.923079   6.590383   1.447794 C.3        1 UNL1     0.0372
     60 C         -2.821643   3.693108   2.058871 C.2        1 UNL1     -0.0208
     61 C         -3.919056   3.977934   1.356516 C.2        1 UNL1     0.0882
     62 H         -4.009224   0.391249   -1.136046 H        1 UNL1     0.0365
     63 H         -5.63107   -0.781288   -0.729842 H        1 UNL1     0.0576
     64 H         -5.441088   -3.488133   -2.190552 H        1 UNL1     0.0615
     65 H         -7.483631   -2.31852   -0.136803 H        1 UNL1     0.0622
     66 H         -1.413171   4.855979   3.050878 H        1 UNL1     0.0645
     67 H         0.25543   3.546925   3.002369 H        1 UNL1     0.0362
     68 H         1.20674   4.729084   1.416972 H        1 UNL1     0.0741
     69 H         1.400793   3.988983   -1.120937 H        1 UNL1     0.0359
     70 H         -0.362413   3.404497   -2.365522 H        1 UNL1     0.0600
     71 H         0.056649   1.276586   -2.332465 H        1 UNL1     0.0348
     72 H         -2.324282   1.148029   -1.835789 H        1 UNL1     0.0602
     73 H         -2.858822   2.962438   2.828279 H        1 UNL1     0.0628
     74 H         -3.949912   4.670317   0.514559 H        1 UNL1     0.1022
     75 H         -7.156396   -6.402444   -0.575923 H        1 UNL1     0.0279
     76 H         -8.685631   -6.410016   0.208095 H        1 UNL1     0.0279
     77 H         -8.518612   -6.058887   -1.55942 H        1 UNL1     0.0279
     78 H         -7.553745   -5.260405   2.070718 H        1 UNL1     0.1553
     79 H         -5.703959   -4.881303   1.470054 H        1 UNL1     0.1484
     80 H         -2.603095   -3.10573   2.762912 H        1 UNL1     0.0317
     81 H         -4.084757   -3.234441   3.699949 H        1 UNL1     0.0317
     82 H         -4.441293   -5.592376   2.92102 H        1 UNL1     0.0428
     83 H         -2.898257   -5.368371   3.715102 H        1 UNL1     0.0428
     84 H         -2.86101   -5.416259   -0.539244 H        1 UNL1     0.0428
     85 H         -4.396807   -5.653929   0.21836 H        1 UNL1     0.0428
     86 H         -3.899306   -3.36276   -0.634803 H        1 UNL1     0.0317
     87 H         -2.544092   -3.17151   0.379678 H        1 UNL1     0.0317
     88 H         -3.226494   -7.562769   1.537471 H        1 UNL1     0.0429
     89 H         -1.650464   -7.156483   0.85388 H        1 UNL1     0.0429
     90 H         -0.954503   -8.002545   2.918753 H        1 UNL1     0.0308
     91 H         -0.107474   -6.225632   4.128917 H        1 UNL1     0.0233
     92 H         -0.880181   -5.221608   2.875779 H        1 UNL1     0.0233
     93 H         -1.685703   -5.498362   4.405205 H        1 UNL1     0.0233
     94 H         -2.888207   -7.171341   4.850869 H        1 UNL1     0.0233
     95 H         -3.728803   -7.873626   3.459999 H        1 UNL1     0.0233
     96 H         -2.480074   -8.812672   4.31021 H        1 UNL1     0.0233
     97 H         -10.201684   2.715031   3.998759 H        1 UNL1     0.0280
     98 H         -9.551019   2.149705   5.51343 H        1 UNL1     0.0280
     99 H         -8.612286   3.303854   4.520228 H        1 UNL1     0.0280
     100 H         -10.782044   0.260391   4.438397 H        1 UNL1     0.2922
     101 H         -3.042397   0.900892   -3.553454 H        1 UNL1     0.0236
     102 H         -4.835642   0.852757   -3.334322 H        1 UNL1     0.0236
     103 H         -3.978413   -0.468562   -4.065603 H        1 UNL1     0.0236
     104 H         -0.564801   -1.13633   -2.229154 H        1 UNL1     0.2098
     105 H         1.422743   0.655564   -0.746208 H        1 UNL1     0.0234
     106 H         0.517498   1.519567   0.528596 H        1 UNL1     0.0234
     107 H         0.0   0.0   0.0 H        1 UNL1     0.0234
     108 H         -2.073932   4.280303   -1.710955 H        1 UNL1     0.2098
     109 H         -1.005195   1.710989   3.319788 H        1 UNL1     0.0234
     110 H         -1.473342   1.550721   1.597013 H        1 UNL1     0.0234
     111 H         0.140314   1.190036   2.101852 H        1 UNL1     0.0234
     112 H         5.220322   4.028277   1.236857 H        1 UNL1     0.0342
     113 H         4.334852   3.033607   2.447151 H        1 UNL1     0.0342
     114 H         5.143909   2.264541   1.078965 H        1 UNL1     0.0342
     115 H         -0.704693   5.950061   -0.772378 H        1 UNL1     0.0234
     116 H         0.751982   6.22144   0.189514 H        1 UNL1     0.0234
     117 H         0.788589   6.063821   -1.578949 H        1 UNL1     0.0234
     118 H         -4.361247   1.526021   4.178742 H        1 UNL1     0.0309
     119 H         -3.867307   3.237856   3.995148 H        1 UNL1     0.0309
     120 H         -5.337947   2.789897   4.831036 H        1 UNL1     0.0309
     121 H         -1.490912   7.383882   0.962737 H        1 UNL1     0.0524
     122 H         -0.969784   6.765971   2.535464 H        1 UNL1     0.0524
     123 H         0.11502   6.623944   1.129487 H        1 UNL1     0.0524
@<TRIPOS>BOND
     1     1     2    1
     2     1    42    1
     3     2     3    2
     4     3     4    1
     5     4     5    2
     6     5     7    1
     7     6    75    1
     8     6    76    1
     9     6    77    1
    10     7     9   am
    11     9    10    1
    12    10    11    2
    13    10    43    1
    14    11    14    1
    15    11    15    1
    16    12    13   ar
    17    12    27   ar
    18    12    43    1
    19    13    14    1
    20    13    30   ar
    21    14    17    2
    22    15    16    1
    23    16    17    1
    24    16    18    1
    25    16    22    1
    26    18    19    1
    27    19    20    1
    28    20    21    1
    29    21    22    1
    30    23    24    1
    31    23    88    1
    32    23    89    1
    33    24    25    1
    34    24    26    1
    35    24    90    1
    36    25    91    1
    37    25    92    1
    38    25    93    1
    39    26    94    1
    40    26    95    1
    41    26    96    1
    42    27    28   ar
    43    28    29   ar
    44    29    30   ar
    45    29    31    1
    46    30    33    1
    47    31    32    1
    48    32    33    1
    49    32    35    1
    50    34    97    1
    51    34    98    1
    52    34    99    1
    53    35    61    1
    54    36    37    1
    55    36    60    1
    56    37    38    1
    57    38    39    1
    58    39    40    1
    59    40    41    1
    60    41    42    1
    61    45   100    1
    62    47   101    1
    63    47   102    1
    64    47   103    1
    65    48   104    1
    66    49   105    1
    67    49   106    1
    68    49   107    1
    69    50   108    1
    70    51    59    1
    71    52   109    1
    72    52   110    1
    73    52   111    1
    74    53    54    1
    75    54    55    2
    76    54    56    1
    77    56   112    1
    78    56   113    1
    79    56   114    1
    80    57   115    1
    81    57   116    1
    82    57   117    1
    83    58   118    1
    84    58   119    1
    85    58   120    1
    86    59   121    1
    87    59   122    1
    88    59   123    1
    89    60    61    2
    90     1    47    1
    91     1    62    1
    92     2    63    1
    93     3    64    1
    94     4    65    1
    95     5     6    1
    96     7     8    2
    97     9    78    1
    98    15    79    1
    99    18    80    1
   100    18    81    1
   101    19    82    1
   102    19    83    1
   103    20    23    1
   104    21    84    1
   105    21    85    1
   106    22    86    1
   107    22    87    1
   108    27    45    1
   109    28    34    1
   110    32    58    1
   111    33    46    2
   112    36    51    1
   113    36    66    1
   114    37    52    1
   115    37    67    1
   116    38    53    1
   117    38    68    1
   118    42    48    1
   119    42    72    1
   120    43    44    2
   121    60    73    1
   122    61    74    1
   123    39    69    1
   124    39    57    1
   125    40    70    1
   126    40    50    1
   127    41    71    1
   128    41    49    1
