@<TRIPOS>MOLECULE
*****
 123 128 0 0 0
SMALL
GASTEIGER

@<TRIPOS>ATOM
     1 C         5.15497   1.775835   0.521506 C.3        1 UNL1     0.0009
     2 C         6.591406   2.592022   -0.31964 C.2        1 UNL1     -0.0787
     3 C         7.877094   2.502601   -0.979228 C.2        1 UNL1     -0.0649
     4 C         8.751475   3.74448   -1.727258 C.2        1 UNL1     -0.0542
     5 C         9.774523   4.045156   -2.660021 C.2        1 UNL1     0.0115
     6 C         10.910427   3.428163   -3.521626 C.3        1 UNL1     -0.0348
     7 C         9.864712   5.530484   -3.262229 C.2        1 UNL1     0.2441
     8 O         10.68218   6.355656   -2.878348 O.2        1 UNL1     -0.2702
     9 N         9.119184   5.736372   -4.43609 N.am        1 UNL1     -0.2772
     10 C         7.83282   6.115192   -4.127732 C.2        1 UNL1     0.1049
     11 C         6.990951   5.138398   -3.84251 C.2        1 UNL1     0.0801
     12 C         6.518625   7.711025   -2.719349 C.ar        1 UNL1     0.0753
     13 C         5.76357   6.577803   -2.278545 C.ar        1 UNL1     0.0305
     14 C         5.890883   5.274444   -2.926695 C.2        1 UNL1     0.0924
     15 N         7.121667   3.810531   -4.004402 N.pl3        1 UNL1     -0.3170
     16 C         5.853578   3.203588   -3.698092 C.3        1 UNL1     0.1275
     17 N         5.207078   4.152768   -2.718899 N.2        1 UNL1     -0.2557
     18 C         5.006701   3.26126   -4.965837 C.3        1 UNL1     0.0016
     19 C         5.770926   2.584254   -6.09243 C.3        1 UNL1     0.0026
     20 N         6.046724   1.206658   -5.708774 N.3        1 UNL1     -0.3018
     21 C         6.80479   1.047236   -4.46608 C.3        1 UNL1     0.0026
     22 C         6.016704   1.730559   -3.347203 C.3        1 UNL1     0.0016
     23 C         6.501234   0.392456   -6.818342 C.3        1 UNL1     0.0012
     24 C         5.352067   0.139196   -7.806791 C.3        1 UNL1     -0.0339
     25 C         5.388146   1.134571   -8.978108 C.3        1 UNL1     -0.0615
     26 C         5.391485   -1.29886   -8.293845 C.3        1 UNL1     -0.0615
     27 C         6.30432   8.976172   -2.177504 C.ar        1 UNL1     0.1347
     28 C         5.339041   9.23796   -1.221599 C.ar        1 UNL1     0.0342
     29 C         4.641452   8.098487   -0.76758 C.ar        1 UNL1     0.1435
     30 C         4.870448   6.818999   -1.275214 C.ar        1 UNL1     0.0774
     31 O         3.59563   8.204125   0.081009 O.3        1 UNL1     -0.4436
     32 C         2.881457   6.967737   -0.067905 C.3        1 UNL1     0.3143
     33 C         3.902828   5.98159   -0.597554 C.2        1 UNL1     0.2504
     34 C         4.882516   10.600444   -0.779647 C.3        1 UNL1     -0.0327
     35 O         2.516704   6.525653   1.2454 O.2        1 UNL1     -0.4528
     36 C         -0.71366   4.576738   0.82759 C.3        1 UNL1     0.0854
     37 C         -1.007576   3.316827   -0.074497 C.3        1 UNL1     0.0236
     38 C         -1.605086   2.05047   0.70721 C.3        1 UNL1     0.1131
     39 C         -0.882879   1.520156   2.010841 C.3        1 UNL1     0.0200
     40 C         0.778864   1.383621   2.059892 C.3        1 UNL1     0.0661
     41 C         1.748227   0.623095   0.893897 C.3        1 UNL1     0.0091
     42 C         3.456569   0.996474   0.339317 C.3        1 UNL1     0.0661
     43 C         7.475338   7.511441   -3.836097 C.2        1 UNL1     0.2131
     44 O         7.873833   8.413555   -4.550329 O.2        1 UNL1     -0.2851
     45 O         7.113145   10.016903   -2.6293 O.3        1 UNL1     -0.5056
     46 O         3.924786   4.777827   -0.46978 O.2        1 UNL1     -0.2836
     47 C         5.546557   1.344821   1.960557 C.3        1 UNL1     -0.0566
     48 O         3.912474   -0.412356   0.41972 O.3        1 UNL1     -0.3909
     49 C         0.921485   0.389139   -0.350794 C.3        1 UNL1     -0.0577
     50 O         1.370404   2.603738   2.458788 O.3        1 UNL1     -0.3910
     51 O         -0.843595   4.38279   2.21789 O.3        1 UNL1     -0.3753
     52 C         0.043442   3.165066   -1.222225 C.3        1 UNL1     -0.0564
     53 O         -2.197504   1.010525   -0.198264 O.3        1 UNL1     -0.4608
     54 C         -2.426406   -0.298366   0.136905 C.2        1 UNL1     0.3042
     55 O         -1.849662   -1.293226   -0.300656 O.2        1 UNL1     -0.2512
     56 C         -3.470791   -0.472478   1.202578 C.3        1 UNL1     0.0332
     57 C         -1.613811   2.181926   3.270195 C.3        1 UNL1     -0.0567
     58 C         1.810313   7.209725   -1.156767 C.3        1 UNL1     0.0210
     59 C         -1.166929   5.558145   2.959415 C.3        1 UNL1     0.0372
     60 C         0.612984   5.213694   0.605184 C.2        1 UNL1     -0.0208
     61 C         1.519197   5.651681   1.48022 C.2        1 UNL1     0.0882
     62 H         4.673221   2.757155   0.608923 H        1 UNL1     0.0365
     63 H         6.318852   3.644071   -0.212969 H        1 UNL1     0.0576
     64 H         8.341144   1.538849   -1.200468 H        1 UNL1     0.0615
     65 H         8.257658   4.656294   -1.380527 H        1 UNL1     0.0622
     66 H         -1.460857   5.319969   0.515581 H        1 UNL1     0.0645
     67 H         -1.871775   3.623017   -0.689287 H        1 UNL1     0.0362
     68 H         -2.556272   2.481238   1.055356 H        1 UNL1     0.0741
     69 H         -1.209803   0.506755   2.202015 H        1 UNL1     0.0359
     70 H         0.889905   0.721644   2.939958 H        1 UNL1     0.0600
     71 H         1.795308   -0.398913   1.318444 H        1 UNL1     0.0348
     72 H         3.343161   1.481565   1.319695 H        1 UNL1     0.0602
     73 H         0.73492   5.414256   -0.430265 H        1 UNL1     0.0628
     74 H         1.497517   5.438169   2.549416 H        1 UNL1     0.1022
     75 H         10.958161   2.322336   -3.373629 H        1 UNL1     0.0279
     76 H         10.80314   3.515709   -4.600465 H        1 UNL1     0.0279
     77 H         11.912303   3.735078   -3.187337 H        1 UNL1     0.0279
     78 H         9.064561   4.867451   -4.963413 H        1 UNL1     0.1553
     79 H         7.792324   3.387785   -4.619574 H        1 UNL1     0.1484
     80 H         4.047183   2.764566   -4.777723 H        1 UNL1     0.0317
     81 H         4.775742   4.29745   -5.235318 H        1 UNL1     0.0317
     82 H         6.69987   3.121287   -6.334443 H        1 UNL1     0.0428
     83 H         5.149898   2.638265   -6.987113 H        1 UNL1     0.0428
     84 H         6.929309   0.004167   -4.158975 H        1 UNL1     0.0428
     85 H         7.833346   1.421176   -4.563851 H        1 UNL1     0.0428
     86 H         6.529998   1.480695   -2.437212 H        1 UNL1     0.0317
     87 H         5.039292   1.24724   -3.228189 H        1 UNL1     0.0317
     88 H         7.296906   0.939964   -7.340296 H        1 UNL1     0.0429
     89 H         6.937279   -0.55183   -6.467683 H        1 UNL1     0.0429
     90 H         4.395791   0.251684   -7.282296 H        1 UNL1     0.0308
     91 H         6.344213   1.090395   -9.508284 H        1 UNL1     0.0233
     92 H         4.577836   0.931932   -9.682341 H        1 UNL1     0.0233
     93 H         5.254691   2.172128   -8.648714 H        1 UNL1     0.0233
     94 H         4.701876   -1.43198   -9.134413 H        1 UNL1     0.0233
     95 H         6.398107   -1.548351   -8.640871 H        1 UNL1     0.0233
     96 H         5.108439   -1.996667   -7.500801 H        1 UNL1     0.0233
     97 H         4.079553   10.544532   -0.050706 H        1 UNL1     0.0280
     98 H         5.68735   11.170211   -0.297087 H        1 UNL1     0.0280
     99 H         4.518844   11.168584   -1.651459 H        1 UNL1     0.0280
     100 H         6.643601   10.766289   -2.951125 H        1 UNL1     0.2922
     101 H         4.683653   0.905161   2.460309 H        1 UNL1     0.0236
     102 H         5.990036   2.151136   2.543795 H        1 UNL1     0.0236
     103 H         6.307203   0.546316   1.961167 H        1 UNL1     0.0236
     104 H         4.328054   -0.53838   1.295153 H        1 UNL1     0.2098
     105 H         0.706737   1.28826   -0.922875 H        1 UNL1     0.0234
     106 H         1.298439   -0.395158   -1.00708 H        1 UNL1     0.0234
     107 H         0.0   -0.0   0.0 H        1 UNL1     0.0234
     108 H         1.17709   3.261045   1.762839 H        1 UNL1     0.2098
     109 H         1.066993   3.056237   -0.837244 H        1 UNL1     0.0234
     110 H         -0.181089   2.33845   -1.904893 H        1 UNL1     0.0234
     111 H         0.063007   4.049655   -1.87266 H        1 UNL1     0.0234
     112 H         -3.589525   -1.534625   1.437295 H        1 UNL1     0.0342
     113 H         -3.241467   0.102392   2.098557 H        1 UNL1     0.0342
     114 H         -4.428286   -0.105738   0.807777 H        1 UNL1     0.0342
     115 H         -2.682229   1.927689   3.302367 H        1 UNL1     0.0234
     116 H         -1.180577   1.902099   4.232512 H        1 UNL1     0.0234
     117 H         -1.658227   3.283675   3.224173 H        1 UNL1     0.0234
     118 H         0.903932   7.689208   -0.747407 H        1 UNL1     0.0309
     119 H         2.180184   7.80319   -1.998906 H        1 UNL1     0.0309
     120 H         1.430088   6.276787   -1.587071 H        1 UNL1     0.0309
     121 H         -0.349091   6.266154   2.828185 H        1 UNL1     0.0524
     122 H         -2.087601   6.04306   2.59437 H        1 UNL1     0.0524
     123 H         -1.288797   5.31706   4.011613 H        1 UNL1     0.0524
@<TRIPOS>BOND
     1     1     2    1
     2     1    42    1
     3     2     3    2
     4     3     4    1
     5     4     5    2
     6     5     7    1
     7     6    75    1
     8     6    76    1
     9     6    77    1
    10     7     9   am
    11     9    10    1
    12    10    11    2
    13    10    43    1
    14    11    14    1
    15    11    15    1
    16    12    13   ar
    17    12    27   ar
    18    12    43    1
    19    13    14    1
    20    13    30   ar
    21    14    17    2
    22    15    16    1
    23    16    17    1
    24    16    18    1
    25    16    22    1
    26    18    19    1
    27    19    20    1
    28    20    21    1
    29    21    22    1
    30    23    24    1
    31    23    88    1
    32    23    89    1
    33    24    25    1
    34    24    26    1
    35    24    90    1
    36    25    91    1
    37    25    92    1
    38    25    93    1
    39    26    94    1
    40    26    95    1
    41    26    96    1
    42    27    28   ar
    43    28    29   ar
    44    29    30   ar
    45    29    31    1
    46    30    33    1
    47    31    32    1
    48    32    33    1
    49    32    35    1
    50    34    97    1
    51    34    98    1
    52    34    99    1
    53    35    61    1
    54    36    37    1
    55    36    60    1
    56    37    38    1
    57    38    39    1
    58    39    40    1
    59    40    41    1
    60    41    42    1
    61    45   100    1
    62    47   101    1
    63    47   102    1
    64    47   103    1
    65    48   104    1
    66    49   105    1
    67    49   106    1
    68    49   107    1
    69    50   108    1
    70    51    59    1
    71    52   109    1
    72    52   110    1
    73    52   111    1
    74    53    54    1
    75    54    55    2
    76    54    56    1
    77    56   112    1
    78    56   113    1
    79    56   114    1
    80    57   115    1
    81    57   116    1
    82    57   117    1
    83    58   118    1
    84    58   119    1
    85    58   120    1
    86    59   121    1
    87    59   122    1
    88    59   123    1
    89    60    61    2
    90     1    47    1
    91     1    62    1
    92     2    63    1
    93     3    64    1
    94     4    65    1
    95     5     6    1
    96     7     8    2
    97     9    78    1
    98    15    79    1
    99    18    80    1
   100    18    81    1
   101    19    82    1
   102    19    83    1
   103    20    23    1
   104    21    84    1
   105    21    85    1
   106    22    86    1
   107    22    87    1
   108    27    45    1
   109    28    34    1
   110    32    58    1
   111    33    46    2
   112    36    51    1
   113    36    66    1
   114    37    52    1
   115    37    67    1
   116    38    53    1
   117    38    68    1
   118    42    48    1
   119    42    72    1
   120    43    44    2
   121    60    73    1
   122    61    74    1
   123    39    69    1
   124    39    57    1
   125    40    70    1
   126    40    50    1
   127    41    71    1
   128    41    49    1
