@<TRIPOS>MOLECULE
*****
 123 128 0 0 0
SMALL
GASTEIGER

@<TRIPOS>ATOM
     1 C         4.986107   2.206327   0.53021 C.3        1 UNL1     0.0009
     2 C         6.383965   3.065341   -0.332995 C.2        1 UNL1     -0.0787
     3 C         7.697804   3.028178   -0.940032 C.2        1 UNL1     -0.0649
     4 C         8.497744   4.270512   -1.766507 C.2        1 UNL1     -0.0542
     5 C         9.52926   4.575126   -2.688604 C.2        1 UNL1     0.0115
     6 C         10.74464   3.984299   -3.454827 C.3        1 UNL1     -0.0348
     7 C         9.522711   6.005688   -3.416915 C.2        1 UNL1     0.2441
     8 O         10.254835   6.92654   -3.081425 O.2        1 UNL1     -0.2702
     9 N         8.81008   6.046792   -4.627955 N.am        1 UNL1     -0.2772
     10 C         7.486063   6.341105   -4.396264 C.2        1 UNL1     0.1049
     11 C         6.715389   5.325013   -4.052985 C.2        1 UNL1     0.0801
     12 C         5.992205   7.935549   -3.178288 C.ar        1 UNL1     0.0753
     13 C         5.314488   6.784795   -2.663435 C.ar        1 UNL1     0.0305
     14 C         5.572484   5.446032   -3.188984 C.2        1 UNL1     0.0924
     15 N         6.959484   4.003873   -4.092164 N.pl3        1 UNL1     -0.3170
     16 C         5.733549   3.320916   -3.774505 C.3        1 UNL1     0.1275
     17 N         4.974028   4.292765   -2.904813 N.2        1 UNL1     -0.2557
     18 C         4.935702   3.198307   -5.069151 C.3        1 UNL1     0.0016
     19 C         5.796277   2.493933   -6.105904 C.3        1 UNL1     0.0026
     20 N         6.167265   1.182376   -5.592859 N.3        1 UNL1     -0.3018
     21 C         6.885893   1.194356   -4.317007 C.3        1 UNL1     0.0026
     22 C         6.001348   1.902333   -3.28927 C.3        1 UNL1     0.0016
     23 C         6.729818   0.31721   -6.610536 C.3        1 UNL1     0.0012
     24 C         5.645011   -0.115573   -7.60936 C.3        1 UNL1     -0.0339
     25 C         5.891675   -1.543328   -8.123877 C.3        1 UNL1     -0.0615
     26 C         4.270742   0.021229   -6.97734 C.3        1 UNL1     -0.0615
     27 C         5.654878   9.219951   -2.758 C.ar        1 UNL1     0.1347
     28 C         4.634445   9.480575   -1.86087 C.ar        1 UNL1     0.0342
     29 C         4.013943   8.32958   -1.330444 C.ar        1 UNL1     0.1435
     30 C         4.365706   7.035108   -1.714925 C.ar        1 UNL1     0.0774
     31 O         2.930189   8.419212   -0.528914 O.3        1 UNL1     -0.4436
     32 C         2.324915   7.118942   -0.590671 C.3        1 UNL1     0.3143
     33 C         3.442954   6.180445   -0.997397 C.2        1 UNL1     0.2504
     34 C         4.051964   10.832677   -1.556513 C.3        1 UNL1     -0.0327
     35 O         1.945378   6.76192   0.744147 O.2        1 UNL1     -0.4528
     36 C         -1.097507   4.519608   0.39632 C.3        1 UNL1     0.0854
     37 C         -1.252476   3.16679   -0.399538 C.3        1 UNL1     0.0236
     38 C         -1.776025   1.926327   0.471607 C.3        1 UNL1     0.1131
     39 C         -1.065501   1.572305   1.839851 C.3        1 UNL1     0.0200
     40 C         0.598586   1.580723   1.954656 C.3        1 UNL1     0.0661
     41 C         1.671788   0.807311   0.892733 C.3        1 UNL1     0.0091
     42 C         3.364933   1.274146   0.362894 C.3        1 UNL1     0.0661
     43 C         7.005447   7.722176   -4.241336 C.2        1 UNL1     0.2131
     44 O         7.357601   8.590076   -5.01946 O.2        1 UNL1     -0.2851
     45 O         6.394069   10.282464   -3.273851 O.3        1 UNL1     -0.5056
     46 O         3.557206   4.998187   -0.762735 O.2        1 UNL1     -0.2836
     47 C         5.353951   1.934683   2.013747 C.3        1 UNL1     -0.0566
     48 O         3.929844   -0.079257   0.582649 O.3        1 UNL1     -0.3909
     49 C         0.916688   0.398851   -0.352449 C.3        1 UNL1     -0.0577
     50 O         1.073136   2.875947   2.262746 O.3        1 UNL1     -0.3910
     51 O         -1.266321   4.435275   1.793395 O.3        1 UNL1     -0.3753
     52 C         -0.147958   3.006171   -1.494613 C.3        1 UNL1     -0.0564
     53 O         -2.245953   0.766487   -0.356804 O.3        1 UNL1     -0.4608
     54 C         -3.36166   0.011101   -0.106764 C.2        1 UNL1     0.3042
     55 O         -3.454241   -0.958041   0.645588 O.2        1 UNL1     -0.2512
     56 C         -4.591639   0.502047   -0.815873 C.3        1 UNL1     0.0332
     57 C         -1.896948   2.275729   3.011203 C.3        1 UNL1     -0.0567
     58 C         1.281702   7.175782   -1.730848 C.3        1 UNL1     0.0210
     59 C         -2.477712   5.00576   2.286288 C.3        1 UNL1     0.0372
     60 C         0.180989   5.244476   0.161425 C.2        1 UNL1     -0.0208
     61 C         1.013373   5.830497   1.023087 C.2        1 UNL1     0.0882
     62 H         4.423414   3.14752   0.514598 H        1 UNL1     0.0365
     63 H         6.023127   4.095996   -0.328929 H        1 UNL1     0.0576
     64 H         8.246753   2.091469   -1.059778 H        1 UNL1     0.0615
     65 H         7.918379   5.16391   -1.518189 H        1 UNL1     0.0622
     66 H         -1.889461   5.167882   -0.004424 H        1 UNL1     0.0645
     67 H         -2.113576   3.345397   -1.066747 H        1 UNL1     0.0362
     68 H         -2.772011   2.303813   0.749166 H        1 UNL1     0.0741
     69 H         -1.316635   0.555122   2.109441 H        1 UNL1     0.0359
     70 H         0.72788   1.00829   2.893093 H        1 UNL1     0.0600
     71 H         1.784583   -0.166963   1.407539 H        1 UNL1     0.0348
     72 H         3.173856   1.830201   1.2922 H        1 UNL1     0.0602
     73 H         0.327237   5.365112   -0.883231 H        1 UNL1     0.0628
     74 H         0.966685   5.708329   2.105737 H        1 UNL1     0.1022
     75 H         10.830173   2.886723   -3.267623 H        1 UNL1     0.0279
     76 H         10.70452   4.034319   -4.540625 H        1 UNL1     0.0279
     77 H         11.708336   4.346058   -3.067374 H        1 UNL1     0.0279
     78 H         8.846923   5.134375   -5.077639 H        1 UNL1     0.1553
     79 H         7.686018   3.587875   -4.645361 H        1 UNL1     0.1484
     80 H         4.012842   2.640625   -4.868934 H        1 UNL1     0.0317
     81 H         4.632483   4.184482   -5.436802 H        1 UNL1     0.0317
     82 H         6.687559   3.084471   -6.364348 H        1 UNL1     0.0428
     83 H         5.208868   2.418653   -7.021509 H        1 UNL1     0.0428
     84 H         7.082171   0.195623   -3.91474 H        1 UNL1     0.0428
     85 H         7.883866   1.64372   -4.414161 H        1 UNL1     0.0428
     86 H         6.496709   1.775427   -2.344548 H        1 UNL1     0.0317
     87 H         5.062323   1.350503   -3.159609 H        1 UNL1     0.0317
     88 H         7.498618   0.882949   -7.152919 H        1 UNL1     0.0429
     89 H         7.22663   -0.553522   -6.163571 H        1 UNL1     0.0429
     90 H         5.650687   0.569842   -8.465156 H        1 UNL1     0.0308
     91 H         6.134173   -2.225398   -7.303464 H        1 UNL1     0.0233
     92 H         5.01437   -1.919332   -8.655448 H        1 UNL1     0.0233
     93 H         6.724787   -1.592713   -8.835439 H        1 UNL1     0.0233
     94 H         3.551058   -0.621827   -7.495384 H        1 UNL1     0.0233
     95 H         4.308503   -0.290662   -5.929838 H        1 UNL1     0.0233
     96 H         3.9101   1.052519   -7.0258 H        1 UNL1     0.0233
     97 H         2.986443   10.872971   -1.762115 H        1 UNL1     0.0280
     98 H         4.164301   11.103024   -0.498425 H        1 UNL1     0.0280
     99 H         4.552062   11.597278   -2.173264 H        1 UNL1     0.0280
     100 H         7.327162   10.16946   -3.227061 H        1 UNL1     0.2922
     101 H         4.446119   1.767067   2.592886 H        1 UNL1     0.0236
     102 H         5.979347   2.712997   2.44974 H        1 UNL1     0.0236
     103 H         5.93709   1.006223   2.13251 H        1 UNL1     0.0236
     104 H         4.394831   -0.068806   1.442095 H        1 UNL1     0.2098
     105 H         0.685092   1.219542   -1.02672 H        1 UNL1     0.0234
     106 H         1.361977   -0.429052   -0.90401 H        1 UNL1     0.0234
     107 H         0.0   -0.0   0.0 H        1 UNL1     0.0234
     108 H         2.045   2.818158   2.33961 H        1 UNL1     0.2098
     109 H         -0.185873   3.808618   -2.244515 H        1 UNL1     0.0234
     110 H         0.863455   2.940218   -1.079356 H        1 UNL1     0.0234
     111 H         -0.267118   2.069493   -2.055311 H        1 UNL1     0.0234
     112 H         -5.44705   -0.129674   -0.557903 H        1 UNL1     0.0342
     113 H         -4.799302   1.548719   -0.598623 H        1 UNL1     0.0342
     114 H         -4.42207   0.413947   -1.897838 H        1 UNL1     0.0342
     115 H         -1.367522   2.228836   3.972815 H        1 UNL1     0.0234
     116 H         -2.135785   3.323544   2.818617 H        1 UNL1     0.0234
     117 H         -2.836328   1.752364   3.259389 H        1 UNL1     0.0234
     118 H         0.246839   7.132777   -1.348468 H        1 UNL1     0.0309
     119 H         1.391101   8.057895   -2.369685 H        1 UNL1     0.0309
     120 H         1.340626   6.308952   -2.398111 H        1 UNL1     0.0309
     121 H         -2.306011   5.300912   3.321064 H        1 UNL1     0.0524
     122 H         -2.772012   5.909847   1.727672 H        1 UNL1     0.0524
     123 H         -3.284148   4.279913   2.232424 H        1 UNL1     0.0524
@<TRIPOS>BOND
     1     1     2    1
     2     1    42    1
     3     2     3    2
     4     3     4    1
     5     4     5    2
     6     5     7    1
     7     6    75    1
     8     6    76    1
     9     6    77    1
    10     7     9   am
    11     9    10    1
    12    10    11    2
    13    10    43    1
    14    11    14    1
    15    11    15    1
    16    12    13   ar
    17    12    27   ar
    18    12    43    1
    19    13    14    1
    20    13    30   ar
    21    14    17    2
    22    15    16    1
    23    16    17    1
    24    16    18    1
    25    16    22    1
    26    18    19    1
    27    19    20    1
    28    20    21    1
    29    21    22    1
    30    23    24    1
    31    23    88    1
    32    23    89    1
    33    24    25    1
    34    24    26    1
    35    24    90    1
    36    25    91    1
    37    25    92    1
    38    25    93    1
    39    26    94    1
    40    26    95    1
    41    26    96    1
    42    27    28   ar
    43    28    29   ar
    44    29    30   ar
    45    29    31    1
    46    30    33    1
    47    31    32    1
    48    32    33    1
    49    32    35    1
    50    34    97    1
    51    34    98    1
    52    34    99    1
    53    35    61    1
    54    36    37    1
    55    36    60    1
    56    37    38    1
    57    38    39    1
    58    39    40    1
    59    40    41    1
    60    41    42    1
    61    45   100    1
    62    47   101    1
    63    47   102    1
    64    47   103    1
    65    48   104    1
    66    49   105    1
    67    49   106    1
    68    49   107    1
    69    50   108    1
    70    51    59    1
    71    52   109    1
    72    52   110    1
    73    52   111    1
    74    53    54    1
    75    54    55    2
    76    54    56    1
    77    56   112    1
    78    56   113    1
    79    56   114    1
    80    57   115    1
    81    57   116    1
    82    57   117    1
    83    58   118    1
    84    58   119    1
    85    58   120    1
    86    59   121    1
    87    59   122    1
    88    59   123    1
    89    60    61    2
    90     1    47    1
    91     1    62    1
    92     2    63    1
    93     3    64    1
    94     4    65    1
    95     5     6    1
    96     7     8    2
    97     9    78    1
    98    15    79    1
    99    18    80    1
   100    18    81    1
   101    19    82    1
   102    19    83    1
   103    20    23    1
   104    21    84    1
   105    21    85    1
   106    22    86    1
   107    22    87    1
   108    27    45    1
   109    28    34    1
   110    32    58    1
   111    33    46    2
   112    36    51    1
   113    36    66    1
   114    37    52    1
   115    37    67    1
   116    38    53    1
   117    38    68    1
   118    42    48    1
   119    42    72    1
   120    43    44    2
   121    60    73    1
   122    61    74    1
   123    39    69    1
   124    39    57    1
   125    40    70    1
   126    40    50    1
   127    41    71    1
   128    41    49    1
