@<TRIPOS>MOLECULE
*****
 123 128 0 0 0
SMALL
GASTEIGER

@<TRIPOS>ATOM
     1 C         3.466932   -2.264617   -0.676447 C.3        1 UNL1     0.0009
     2 C         4.498837   -2.310475   -2.215962 C.2        1 UNL1     -0.0787
     3 C         4.907284   -2.976306   -3.434931 C.2        1 UNL1     -0.0649
     4 C         5.93721   -2.39192   -4.644933 C.2        1 UNL1     -0.0542
     5 C         6.335531   -2.530632   -5.997404 C.2        1 UNL1     0.0115
     6 C         6.209282   -3.428583   -7.25878 C.3        1 UNL1     -0.0348
     7 C         7.131981   -1.326914   -6.700055 C.2        1 UNL1     0.2441
     8 O         8.342031   -1.344546   -6.878922 O.2        1 UNL1     -0.2702
     9 N         6.31722   -0.369831   -7.329586 N.am        1 UNL1     -0.2772
     10 C         5.950637   0.610765   -6.43663 C.2        1 UNL1     0.1049
     11 C         4.916739   0.3358   -5.662246 C.2        1 UNL1     0.0801
     12 C         6.87528   2.170825   -4.713674 C.ar        1 UNL1     0.0753
     13 C         5.854716   1.682359   -3.837057 C.ar        1 UNL1     0.0305
     14 C         4.76173   0.845267   -4.326659 C.2        1 UNL1     0.0924
     15 N         4.022339   -0.664591   -5.73838 N.pl3        1 UNL1     -0.3170
     16 C         2.997127   -0.412763   -4.760742 C.3        1 UNL1     0.1275
     17 N         3.688855   0.389833   -3.685998 N.2        1 UNL1     -0.2557
     18 C         1.980914   0.526707   -5.402932 C.3        1 UNL1     0.0016
     19 C         1.478569   -0.106982   -6.690441 C.3        1 UNL1     0.0026
     20 N         0.87521   -1.394142   -6.373888 N.3        1 UNL1     -0.3018
     21 C         1.759058   -2.345422   -5.696947 C.3        1 UNL1     0.0026
     22 C         2.24823   -1.6901   -4.404214 C.3        1 UNL1     0.0016
     23 C         0.104622   -1.941247   -7.472757 C.3        1 UNL1     0.0012
     24 C         0.81498   -1.681625   -8.810571 C.3        1 UNL1     -0.0339
     25 C         0.156202   -2.464437   -9.958296 C.3        1 UNL1     -0.0615
     26 C         0.852261   -0.191066   -9.099751 C.3        1 UNL1     -0.0615
     27 C         7.844435   3.065218   -4.265435 C.ar        1 UNL1     0.1347
     28 C         7.871775   3.571104   -2.978041 C.ar        1 UNL1     0.0342
     29 C         6.886659   3.038647   -2.119437 C.ar        1 UNL1     0.1435
     30 C         5.931443   2.114637   -2.544863 C.ar        1 UNL1     0.0774
     31 O         6.713547   3.512233   -0.866139 O.3        1 UNL1     -0.4436
     32 C         5.388569   3.097172   -0.501406 C.3        1 UNL1     0.3143
     33 C         5.089969   1.903291   -1.385544 C.2        1 UNL1     0.2504
     34 C         8.720284   4.715649   -2.498301 C.3        1 UNL1     -0.0327
     35 O         5.449456   2.613578   0.846066 O.2        1 UNL1     -0.4528
     36 C         2.039342   3.314879   2.358477 C.3        1 UNL1     0.0854
     37 C         0.616045   2.844801   1.867789 C.3        1 UNL1     0.0236
     38 C         -0.252419   2.061427   2.964986 C.3        1 UNL1     0.1131
     39 C         0.385471   0.844189   3.748373 C.3        1 UNL1     0.0200
     40 C         1.294466   -0.297428   2.940364 C.3        1 UNL1     0.0661
     41 C         0.839194   -1.107208   1.521 C.3        1 UNL1     0.0091
     42 C         1.856815   -1.72826   0.126674 C.3        1 UNL1     0.0661
     43 C         6.81455   1.762963   -6.139233 C.2        1 UNL1     0.2131
     44 O         7.348205   2.384198   -7.040354 O.2        1 UNL1     -0.2851
     45 O         8.829169   3.456297   -5.170308 O.3        1 UNL1     -0.5056
     46 O         4.342594   0.975175   -1.171339 O.2        1 UNL1     -0.2836
     47 C         4.036543   -3.244971   0.383945 C.3        1 UNL1     -0.0566
     48 O         1.205538   -3.060164   0.095264 O.3        1 UNL1     -0.3909
     49 C         -0.352808   -0.39942   0.916302 C.3        1 UNL1     -0.0577
     50 O         2.645687   0.107932   2.853141 O.3        1 UNL1     -0.3910
     51 O         2.440758   2.844119   3.625238 O.3        1 UNL1     -0.3753
     52 C         0.629784   2.422586   0.362301 C.3        1 UNL1     -0.0564
     53 O         -1.704081   1.937186   2.605031 O.3        1 UNL1     -0.4608
     54 C         -2.214664   1.980568   1.334066 C.2        1 UNL1     0.3042
     55 O         -1.837063   2.688462   0.401252 O.2        1 UNL1     -0.2512
     56 C         -3.320708   0.99223   1.096227 C.3        1 UNL1     0.0332
     57 C         0.955329   1.407053   5.132794 C.3        1 UNL1     -0.0567
     58 C         4.443513   4.256871   -0.893191 C.3        1 UNL1     0.0210
     59 C         2.445499   3.829635   4.657033 C.3        1 UNL1     0.0372
     60 C         3.156231   3.023968   1.418748 C.2        1 UNL1     -0.0208
     61 C         4.371396   2.524625   1.648476 C.2        1 UNL1     0.0882
     62 H         3.886625   -1.277617   -0.447536 H        1 UNL1     0.0365
     63 H         5.098319   -1.407005   -2.08622 H        1 UNL1     0.0576
     64 H         4.430392   -3.900114   -3.769982 H        1 UNL1     0.0615
     65 H         6.416346   -1.524529   -4.182825 H        1 UNL1     0.0622
     66 H         1.965884   4.410356   2.409274 H        1 UNL1     0.0645
     67 H         0.044439   3.783533   1.764796 H        1 UNL1     0.0362
     68 H         -0.368643   2.860846   3.712611 H        1 UNL1     0.0741
     69 H         -0.410777   0.251815   4.17906 H        1 UNL1     0.0359
     70 H         1.296894   -1.107742   3.694317 H        1 UNL1     0.0600
     71 H         0.360016   -2.005948   1.956446 H        1 UNL1     0.0348
     72 H         2.548747   -1.593762   0.970745 H        1 UNL1     0.0602
     73 H         2.910168   3.399889   0.456779 H        1 UNL1     0.0628
     74 H         4.682603   2.067319   2.588294 H        1 UNL1     0.1022
     75 H         6.962626   -4.25242   -7.230506 H        1 UNL1     0.0279
     76 H         5.273689   -3.970633   -7.376744 H        1 UNL1     0.0279
     77 H         6.494514   -2.905622   -8.183364 H        1 UNL1     0.0279
     78 H         5.464527   -0.813561   -7.664393 H        1 UNL1     0.1553
     79 H         3.861473   -1.205959   -6.567823 H        1 UNL1     0.1484
     80 H         1.160637   0.702851   -4.696614 H        1 UNL1     0.0317
     81 H         2.429248   1.503784   -5.612615 H        1 UNL1     0.0317
     82 H         2.284537   -0.218946   -7.43057 H        1 UNL1     0.0428
     83 H         0.756645   0.580172   -7.132815 H        1 UNL1     0.0428
     84 H         1.259776   -3.272774   -5.399377 H        1 UNL1     0.0428
     85 H         2.576416   -2.680313   -6.350468 H        1 UNL1     0.0428
     86 H         2.780504   -2.457807   -3.873839 H        1 UNL1     0.0317
     87 H         1.396173   -1.472776   -3.748572 H        1 UNL1     0.0317
     88 H         0.022412   -3.026069   -7.325462 H        1 UNL1     0.0429
     89 H         -0.916853   -1.539662   -7.48233 H        1 UNL1     0.0429
     90 H         1.861863   -1.997089   -8.728523 H        1 UNL1     0.0308
     91 H         0.216753   -1.913494   -10.90164 H        1 UNL1     0.0233
     92 H         0.630533   -3.440801   -10.082119 H        1 UNL1     0.0233
     93 H         -0.906544   -2.66207   -9.772968 H        1 UNL1     0.0233
     94 H         0.025835   0.313766   -8.587892 H        1 UNL1     0.0233
     95 H         1.788721   0.237582   -8.731965 H        1 UNL1     0.0233
     96 H         0.769086   0.009685   -10.171548 H        1 UNL1     0.0233
     97 H         8.119818   5.562952   -2.180892 H        1 UNL1     0.0280
     98 H         9.334124   4.440486   -1.630694 H        1 UNL1     0.0280
     99 H         9.385007   5.048713   -3.312123 H        1 UNL1     0.0280
     100 H         8.866605   4.382603   -5.332105 H        1 UNL1     0.2922
     101 H         3.666903   -2.972833   1.37236 H        1 UNL1     0.0236
     102 H         5.123271   -3.318572   0.35968 H        1 UNL1     0.0236
     103 H         3.681401   -4.277132   0.226751 H        1 UNL1     0.0236
     104 H         1.769801   -3.651857   -0.439971 H        1 UNL1     0.2098
     105 H         -1.195438   -1.049159   0.69353 H        1 UNL1     0.0234
     106 H         -0.688466   0.479054   1.467251 H        1 UNL1     0.0234
     107 H         0.0   0.0   0.0 H        1 UNL1     0.0234
     108 H         2.788797   0.789689   3.537608 H        1 UNL1     0.2098
     109 H         0.923896   3.249575   -0.298985 H        1 UNL1     0.0234
     110 H         1.264844   1.552192   0.165181 H        1 UNL1     0.0234
     111 H         -0.36562   2.108625   0.020913 H        1 UNL1     0.0234
     112 H         -4.021528   1.00866   1.936422 H        1 UNL1     0.0342
     113 H         -3.835958   1.173083   0.154073 H        1 UNL1     0.0342
     114 H         -2.878364   -0.012258   1.046234 H        1 UNL1     0.0342
     115 H         1.227498   0.596079   5.822311 H        1 UNL1     0.0234
     116 H         1.829226   2.052367   5.023602 H        1 UNL1     0.0234
     117 H         0.202949   1.950742   5.729677 H        1 UNL1     0.0234
     118 H         3.86074   4.626047   -0.031164 H        1 UNL1     0.0309
     119 H         4.966176   5.098359   -1.358942 H        1 UNL1     0.0309
     120 H         3.671438   3.947392   -1.606094 H        1 UNL1     0.0309
     121 H         1.905964   3.41733   5.509244 H        1 UNL1     0.0524
     122 H         3.465554   4.074623   4.996894 H        1 UNL1     0.0524
     123 H         1.961372   4.73845   4.310954 H        1 UNL1     0.0524
@<TRIPOS>BOND
     1     1     2    1
     2     1    42    1
     3     2     3    2
     4     3     4    1
     5     4     5    2
     6     5     7    1
     7     6    75    1
     8     6    76    1
     9     6    77    1
    10     7     9   am
    11     9    10    1
    12    10    11    2
    13    10    43    1
    14    11    14    1
    15    11    15    1
    16    12    13   ar
    17    12    27   ar
    18    12    43    1
    19    13    14    1
    20    13    30   ar
    21    14    17    2
    22    15    16    1
    23    16    17    1
    24    16    18    1
    25    16    22    1
    26    18    19    1
    27    19    20    1
    28    20    21    1
    29    21    22    1
    30    23    24    1
    31    23    88    1
    32    23    89    1
    33    24    25    1
    34    24    26    1
    35    24    90    1
    36    25    91    1
    37    25    92    1
    38    25    93    1
    39    26    94    1
    40    26    95    1
    41    26    96    1
    42    27    28   ar
    43    28    29   ar
    44    29    30   ar
    45    29    31    1
    46    30    33    1
    47    31    32    1
    48    32    33    1
    49    32    35    1
    50    34    97    1
    51    34    98    1
    52    34    99    1
    53    35    61    1
    54    36    37    1
    55    36    60    1
    56    37    38    1
    57    38    39    1
    58    39    40    1
    59    40    41    1
    60    41    42    1
    61    45   100    1
    62    47   101    1
    63    47   102    1
    64    47   103    1
    65    48   104    1
    66    49   105    1
    67    49   106    1
    68    49   107    1
    69    50   108    1
    70    51    59    1
    71    52   109    1
    72    52   110    1
    73    52   111    1
    74    53    54    1
    75    54    55    2
    76    54    56    1
    77    56   112    1
    78    56   113    1
    79    56   114    1
    80    57   115    1
    81    57   116    1
    82    57   117    1
    83    58   118    1
    84    58   119    1
    85    58   120    1
    86    59   121    1
    87    59   122    1
    88    59   123    1
    89    60    61    2
    90     1    47    1
    91     1    62    1
    92     2    63    1
    93     3    64    1
    94     4    65    1
    95     5     6    1
    96     7     8    2
    97     9    78    1
    98    15    79    1
    99    18    80    1
   100    18    81    1
   101    19    82    1
   102    19    83    1
   103    20    23    1
   104    21    84    1
   105    21    85    1
   106    22    86    1
   107    22    87    1
   108    27    45    1
   109    28    34    1
   110    32    58    1
   111    33    46    2
   112    36    51    1
   113    36    66    1
   114    37    52    1
   115    37    67    1
   116    38    53    1
   117    38    68    1
   118    42    48    1
   119    42    72    1
   120    43    44    2
   121    60    73    1
   122    61    74    1
   123    39    69    1
   124    39    57    1
   125    40    70    1
   126    40    50    1
   127    41    71    1
   128    41    49    1
