@<TRIPOS>MOLECULE
*****
 123 128 0 0 0
SMALL
GASTEIGER

@<TRIPOS>ATOM
     1 C         2.325882   -2.434155   -2.576075 C.3        1 UNL1     0.0009
     2 C         2.884192   -2.045716   -4.300732 C.2        1 UNL1     -0.0787
     3 C         2.768965   -2.236617   -5.731231 C.2        1 UNL1     -0.0649
     4 C         3.586858   -1.40857   -6.960761 C.2        1 UNL1     -0.0542
     5 C         3.578888   -1.069147   -8.336191 C.2        1 UNL1     0.0115
     6 C         2.892097   -1.361348   -9.698637 C.3        1 UNL1     -0.0348
     7 C         4.483311   0.158238   -8.83872 C.2        1 UNL1     0.2441
     8 O         5.553844   0.005515   -9.410699 O.2        1 UNL1     -0.2702
     9 N         3.844313   1.410098   -8.812636 N.am        1 UNL1     -0.2772
     10 C         4.006524   2.006517   -7.583289 C.2        1 UNL1     0.1049
     11 C         3.164333   1.6302   -6.638132 C.2        1 UNL1     0.0801
     12 C         5.735805   2.57796   -5.868537 C.ar        1 UNL1     0.0753
     13 C         4.870726   1.966287   -4.906195 C.ar        1 UNL1     0.0305
     14 C         3.498777   1.590541   -5.240294 C.2        1 UNL1     0.0924
     15 N         2.032873   0.910061   -6.726026 N.pl3        1 UNL1     -0.3170
     16 C         1.399232   0.927861   -5.434346 C.3        1 UNL1     0.1275
     17 N         2.535832   1.11063   -4.458406 N.2        1 UNL1     -0.2557
     18 C         0.565583   2.203313   -5.357196 C.3        1 UNL1     0.0016
     19 C         -0.400718   2.22446   -6.530825 C.3        1 UNL1     0.0026
     20 N         -1.246404   1.040786   -6.461836 N.3        1 UNL1     -0.3018
     21 C         -0.529979   -0.23635   -6.46741 C.3        1 UNL1     0.0026
     22 C         0.431583   -0.237764   -5.27775 C.3        1 UNL1     0.0016
     23 C         -2.389355   1.111738   -7.350246 C.3        1 UNL1     0.0012
     24 C         -2.939207   2.545682   -7.407035 C.3        1 UNL1     -0.0339
     25 C         -3.982439   2.704062   -8.525355 C.3        1 UNL1     -0.0615
     26 C         -3.505689   2.940175   -6.054166 C.3        1 UNL1     -0.0615
     27 C         6.999106   3.042959   -5.510816 C.ar        1 UNL1     0.1347
     28 C         7.489316   2.987818   -4.218259 C.ar        1 UNL1     0.0342
     29 C         6.640048   2.337448   -3.297972 C.ar        1 UNL1     0.1435
     30 C         5.386915   1.834328   -3.649751 C.ar        1 UNL1     0.0774
     31 O         6.92701   2.300913   -1.978379 O.3        1 UNL1     -0.4436
     32 C         5.67337   2.009366   -1.342565 C.3        1 UNL1     0.3143
     33 C         4.836932   1.330823   -2.408475 C.2        1 UNL1     0.2504
     34 C         8.719935   3.686958   -3.711426 C.3        1 UNL1     -0.0327
     35 O         5.928192   1.031313   -0.326824 O.2        1 UNL1     -0.4528
     36 C         3.348021   1.652798   2.386948 C.3        1 UNL1     0.0854
     37 C         1.774415   1.665473   2.281473 C.3        1 UNL1     0.0236
     38 C         1.021263   0.674531   3.292681 C.3        1 UNL1     0.1131
     39 C         1.460903   -0.842574   3.378569 C.3        1 UNL1     0.0200
     40 C         1.77619   -1.710779   1.989593 C.3        1 UNL1     0.0661
     41 C         0.770502   -1.80475   0.626739 C.3        1 UNL1     0.0091
     42 C         1.188199   -1.99047   -1.149898 C.3        1 UNL1     0.0661
     43 C         5.208114   2.781776   -7.240492 C.2        1 UNL1     0.2131
     44 O         5.654109   3.6064   -8.017552 O.2        1 UNL1     -0.2851
     45 O         7.796272   3.583963   -6.517433 O.3        1 UNL1     -0.5056
     46 O         3.934526   0.536361   -2.265833 O.2        1 UNL1     -0.2836
     47 C         2.838762   -3.834807   -2.145828 C.3        1 UNL1     -0.0566
     48 O         0.198664   -3.069233   -1.386977 O.3        1 UNL1     -0.3909
     49 C         -0.282421   -0.723166   0.721727 C.3        1 UNL1     -0.0577
     50 O         3.120563   -1.541835   1.587297 O.3        1 UNL1     -0.3910
     51 O         3.901597   0.659803   3.220583 O.3        1 UNL1     -0.3753
     52 C         1.291646   1.875066   0.809076 C.3        1 UNL1     -0.0564
     53 O         -0.447641   0.952841   3.423796 O.3        1 UNL1     -0.4608
     54 C         -1.427473   0.004593   3.560483 C.2        1 UNL1     0.3042
     55 O         -1.480432   -1.098282   3.017619 O.2        1 UNL1     -0.2512
     56 C         -2.502708   0.387326   4.537262 C.3        1 UNL1     0.0332
     57 C         2.493723   -0.977426   4.592353 C.3        1 UNL1     -0.0567
     58 C         5.030667   3.372829   -0.996974 C.3        1 UNL1     0.0210
     59 C         5.172565   0.987268   3.78029 C.3        1 UNL1     0.0372
     60 C         4.064864   1.569065   1.085301 C.2        1 UNL1     -0.0208
     61 C         5.105012   0.819487   0.717921 C.2        1 UNL1     0.0882
     62 H         3.052192   -1.704989   -2.197256 H        1 UNL1     0.0365
     63 H         3.728447   -1.3837   -4.097172 H        1 UNL1     0.0576
     64 H         1.981211   -2.857101   -6.164303 H        1 UNL1     0.0615
     65 H         4.392325   -0.889479   -6.434215 H        1 UNL1     0.0622
     66 H         3.604256   2.634575   2.809444 H        1 UNL1     0.0645
     67 H         1.486584   2.651641   2.685437 H        1 UNL1     0.0362
     68 H         1.327465   1.121726   4.250689 H        1 UNL1     0.0741
     69 H         0.662727   -1.41079   3.837321 H        1 UNL1     0.0359
     70 H         1.735975   -2.739982   2.394789 H        1 UNL1     0.0600
     71 H         0.179891   -2.705802   0.884112 H        1 UNL1     0.0348
     72 H         2.077451   -2.320133   -0.59324 H        1 UNL1     0.0602
     73 H         3.704128   2.329713   0.43836 H        1 UNL1     0.0628
     74 H         5.497384   -0.017082   1.297089 H        1 UNL1     0.1022
     75 H         2.218463   -2.248141   -9.615863 H        1 UNL1     0.0279
     76 H         2.2225   -0.593213   -10.079002 H        1 UNL1     0.0279
     77 H         3.601248   -1.698906   -10.468611 H        1 UNL1     0.0279
     78 H         2.845281   1.2874   -8.964157 H        1 UNL1     0.1553
     79 H         1.523158   0.775589   -7.579865 H        1 UNL1     0.1484
     80 H         0.032471   2.224574   -4.399018 H        1 UNL1     0.0317
     81 H         1.206218   3.09143   -5.379223 H        1 UNL1     0.0317
     82 H         0.128971   2.276928   -7.49342 H        1 UNL1     0.0428
     83 H         -0.983879   3.142929   -6.457412 H        1 UNL1     0.0428
     84 H         -1.181719   -1.105468   -6.334441 H        1 UNL1     0.0428
     85 H         -0.031555   -0.421261   -7.429021 H        1 UNL1     0.0428
     86 H         0.838217   -1.23116   -5.2353 H        1 UNL1     0.0317
     87 H         -0.131871   -0.153907   -4.340423 H        1 UNL1     0.0317
     88 H         -2.057987   0.824386   -8.356684 H        1 UNL1     0.0429
     89 H         -3.170112   0.399731   -7.053196 H        1 UNL1     0.0429
     90 H         -2.112692   3.239934   -7.599652 H        1 UNL1     0.0308
     91 H         -4.754233   3.428886   -8.249555 H        1 UNL1     0.0233
     92 H         -3.506341   3.023517   -9.455348 H        1 UNL1     0.0233
     93 H         -4.49694   1.762604   -8.752912 H        1 UNL1     0.0233
     94 H         -3.815521   2.047786   -5.499655 H        1 UNL1     0.0233
     95 H         -2.741646   3.454879   -5.464862 H        1 UNL1     0.0233
     96 H         -4.372173   3.598773   -6.161041 H        1 UNL1     0.0233
     97 H         8.833206   3.584337   -2.636312 H        1 UNL1     0.0280
     98 H         9.638982   3.277691   -4.150868 H        1 UNL1     0.0280
     99 H         8.659432   4.761095   -3.951558 H        1 UNL1     0.0280
     100 H         7.659249   3.208771   -7.369535 H        1 UNL1     0.2922
     101 H         2.718034   -3.955901   -1.069531 H        1 UNL1     0.0236
     102 H         3.860166   -4.034812   -2.467876 H        1 UNL1     0.0236
     103 H         2.240244   -4.648768   -2.587911 H        1 UNL1     0.0236
     104 H         -0.331665   -3.167327   -0.572054 H        1 UNL1     0.2098
     105 H         -1.289893   -1.055017   0.483637 H        1 UNL1     0.0234
     106 H         -0.279686   -0.166001   1.65847 H        1 UNL1     0.0234
     107 H         0.0   0.0   0.0 H        1 UNL1     0.0234
     108 H         3.258006   -2.095718   0.794775 H        1 UNL1     0.2098
     109 H         1.635354   2.831409   0.390765 H        1 UNL1     0.0234
     110 H         1.581665   1.057347   0.140519 H        1 UNL1     0.0234
     111 H         0.195789   1.897945   0.741839 H        1 UNL1     0.0234
     112 H         -3.256499   -0.404108   4.589959 H        1 UNL1     0.0342
     113 H         -2.099399   0.609103   5.524176 H        1 UNL1     0.0342
     114 H         -2.994889   1.297047   4.166678 H        1 UNL1     0.0342
     115 H         2.397034   -1.944197   5.105378 H        1 UNL1     0.0234
     116 H         3.539541   -0.863958   4.300055 H        1 UNL1     0.0234
     117 H         2.293487   -0.275829   5.420368 H        1 UNL1     0.0234
     118 H         5.090258   3.597589   0.082349 H        1 UNL1     0.0309
     119 H         5.4618   4.206226   -1.56069 H        1 UNL1     0.0309
     120 H         3.954408   3.393806   -1.200276 H        1 UNL1     0.0309
     121 H         5.121064   0.793147   4.851281 H        1 UNL1     0.0524
     122 H         5.984033   0.364289   3.368641 H        1 UNL1     0.0524
     123 H         5.404626   2.033024   3.599631 H        1 UNL1     0.0524
@<TRIPOS>BOND
     1     1     2    1
     2     1    42    1
     3     2     3    2
     4     3     4    1
     5     4     5    2
     6     5     7    1
     7     6    75    1
     8     6    76    1
     9     6    77    1
    10     7     9   am
    11     9    10    1
    12    10    11    2
    13    10    43    1
    14    11    14    1
    15    11    15    1
    16    12    13   ar
    17    12    27   ar
    18    12    43    1
    19    13    14    1
    20    13    30   ar
    21    14    17    2
    22    15    16    1
    23    16    17    1
    24    16    18    1
    25    16    22    1
    26    18    19    1
    27    19    20    1
    28    20    21    1
    29    21    22    1
    30    23    24    1
    31    23    88    1
    32    23    89    1
    33    24    25    1
    34    24    26    1
    35    24    90    1
    36    25    91    1
    37    25    92    1
    38    25    93    1
    39    26    94    1
    40    26    95    1
    41    26    96    1
    42    27    28   ar
    43    28    29   ar
    44    29    30   ar
    45    29    31    1
    46    30    33    1
    47    31    32    1
    48    32    33    1
    49    32    35    1
    50    34    97    1
    51    34    98    1
    52    34    99    1
    53    35    61    1
    54    36    37    1
    55    36    60    1
    56    37    38    1
    57    38    39    1
    58    39    40    1
    59    40    41    1
    60    41    42    1
    61    45   100    1
    62    47   101    1
    63    47   102    1
    64    47   103    1
    65    48   104    1
    66    49   105    1
    67    49   106    1
    68    49   107    1
    69    50   108    1
    70    51    59    1
    71    52   109    1
    72    52   110    1
    73    52   111    1
    74    53    54    1
    75    54    55    2
    76    54    56    1
    77    56   112    1
    78    56   113    1
    79    56   114    1
    80    57   115    1
    81    57   116    1
    82    57   117    1
    83    58   118    1
    84    58   119    1
    85    58   120    1
    86    59   121    1
    87    59   122    1
    88    59   123    1
    89    60    61    2
    90     1    47    1
    91     1    62    1
    92     2    63    1
    93     3    64    1
    94     4    65    1
    95     5     6    1
    96     7     8    2
    97     9    78    1
    98    15    79    1
    99    18    80    1
   100    18    81    1
   101    19    82    1
   102    19    83    1
   103    20    23    1
   104    21    84    1
   105    21    85    1
   106    22    86    1
   107    22    87    1
   108    27    45    1
   109    28    34    1
   110    32    58    1
   111    33    46    2
   112    36    51    1
   113    36    66    1
   114    37    52    1
   115    37    67    1
   116    38    53    1
   117    38    68    1
   118    42    48    1
   119    42    72    1
   120    43    44    2
   121    60    73    1
   122    61    74    1
   123    39    69    1
   124    39    57    1
   125    40    70    1
   126    40    50    1
   127    41    71    1
   128    41    49    1
