@<TRIPOS>MOLECULE
*****
 123 128 0 0 0
SMALL
GASTEIGER

@<TRIPOS>ATOM
     1 C         5.193166   1.656584   0.534809 C.3        1 UNL1     0.0009
     2 C         6.629569   2.497351   -0.281827 C.2        1 UNL1     -0.0787
     3 C         7.902422   2.425957   -0.967973 C.2        1 UNL1     -0.0649
     4 C         8.78592   3.695365   -1.656733 C.2        1 UNL1     -0.0542
     5 C         9.79852   4.033838   -2.587944 C.2        1 UNL1     0.0115
     6 C         10.909063   3.450303   -3.504189 C.3        1 UNL1     -0.0348
     7 C         9.904722   5.550532   -3.103066 C.2        1 UNL1     0.2441
     8 O         10.742734   6.337929   -2.685613 O.2        1 UNL1     -0.2702
     9 N         9.143616   5.837839   -4.249506 N.am        1 UNL1     -0.2772
     10 C         7.869349   6.218895   -3.896859 C.2        1 UNL1     0.1049
     11 C         7.015345   5.240941   -3.654982 C.2        1 UNL1     0.0801
     12 C         6.606728   7.74998   -2.374065 C.ar        1 UNL1     0.0753
     13 C         5.839347   6.605249   -1.987639 C.ar        1 UNL1     0.0305
     14 C         5.933107   5.340638   -2.7136 C.2        1 UNL1     0.0924
     15 N         7.120113   3.923016   -3.897108 N.pl3        1 UNL1     -0.3170
     16 C         5.846832   3.319994   -3.604917 C.3        1 UNL1     0.1275
     17 N         5.233307   4.220054   -2.56031 N.2        1 UNL1     -0.2557
     18 C         4.980262   3.466597   -4.85202 C.3        1 UNL1     0.0016
     19 C         5.713805   2.844983   -6.029773 C.3        1 UNL1     0.0026
     20 N         5.971758   1.442725   -5.732857 N.3        1 UNL1     -0.3018
     21 C         6.747349   1.197513   -4.515196 C.3        1 UNL1     0.0026
     22 C         5.989935   1.826282   -3.344355 C.3        1 UNL1     0.0016
     23 C         6.393556   0.688275   -6.896272 C.3        1 UNL1     0.0012
     24 C         5.223958   0.512978   -7.877633 C.3        1 UNL1     -0.0339
     25 C         5.248174   1.585798   -8.978782 C.3        1 UNL1     -0.0615
     26 C         5.240349   -0.888678   -8.462331 C.3        1 UNL1     -0.0615
     27 C         6.423576   8.984181   -1.754935 C.ar        1 UNL1     0.1347
     28 C         5.478952   9.204786   -0.768492 C.ar        1 UNL1     0.0342
     29 C         4.769129   8.052085   -0.370251 C.ar        1 UNL1     0.1435
     30 C         4.967283   6.801302   -0.956338 C.ar        1 UNL1     0.0774
     31 O         3.73948   8.124517   0.501289 O.3        1 UNL1     -0.4436
     32 C         3.001419   6.911063   0.292317 C.3        1 UNL1     0.3143
     33 C         3.996488   5.941303   -0.312346 C.2        1 UNL1     0.2504
     34 C         5.053702   10.54605   -0.239084 C.3        1 UNL1     -0.0327
     35 O         2.650737   6.398059   1.583479 O.2        1 UNL1     -0.4528
     36 C         -0.619697   4.530842   1.108235 C.3        1 UNL1     0.0854
     37 C         -0.950479   3.331582   0.138761 C.3        1 UNL1     0.0236
     38 C         -1.557057   2.031181   0.854838 C.3        1 UNL1     0.1131
     39 C         -0.822798   1.412762   2.112093 C.3        1 UNL1     0.0200
     40 C         0.836885   1.246177   2.123878 C.3        1 UNL1     0.0661
     41 C         1.773394   0.540152   0.898281 C.3        1 UNL1     0.0091
     42 C         3.478611   0.917494   0.336808 C.3        1 UNL1     0.0661
     43 C         7.54122   7.601128   -3.517231 C.2        1 UNL1     0.2131
     44 O         7.943582   8.537261   -4.183937 O.2        1 UNL1     -0.2851
     45 O         7.242911   10.03636   -2.158724 O.3        1 UNL1     -0.5056
     46 O         3.999488   4.731888   -0.256135 O.2        1 UNL1     -0.2836
     47 C         5.600877   1.13471   1.938875 C.3        1 UNL1     -0.0566
     48 O         3.911061   -0.500951   0.326047 O.3        1 UNL1     -0.3909
     49 C         0.922231   0.39398   -0.343351 C.3        1 UNL1     -0.0577
     50 O         1.456194   2.430609   2.583551 O.3        1 UNL1     -0.3910
     51 O         -0.730015   4.257073   2.486753 O.3        1 UNL1     -0.3753
     52 C         0.078615   3.230742   -1.034161 C.3        1 UNL1     -0.0564
     53 O         -2.182461   1.056593   -0.099821 O.3        1 UNL1     -0.4608
     54 C         -2.416649   -0.268996   0.15689 C.2        1 UNL1     0.3042
     55 O         -1.861548   -1.238866   -0.357943 O.2        1 UNL1     -0.2512
     56 C         -3.435776   -0.501734   1.235744 C.3        1 UNL1     0.0332
     57 C         -1.521131   2.010757   3.420875 C.3        1 UNL1     -0.0567
     58 C         1.916828   7.234739   -0.761451 C.3        1 UNL1     0.0210
     59 C         -1.051473   5.385845   3.298174 C.3        1 UNL1     0.0372
     60 C         0.714033   5.157887   0.90053 C.2        1 UNL1     -0.0208
     61 C         1.642106   5.528284   1.783837 C.2        1 UNL1     0.0882
     62 H         4.730173   2.638816   0.688332 H        1 UNL1     0.0365
     63 H         6.377266   3.545588   -0.108585 H        1 UNL1     0.0576
     64 H         8.345818   1.469476   -1.253721 H        1 UNL1     0.0615
     65 H         8.31393   4.593066   -1.24827 H        1 UNL1     0.0622
     66 H         -1.358828   5.303467   0.853711 H        1 UNL1     0.0645
     67 H         -1.819228   3.687851   -0.441674 H        1 UNL1     0.0362
     68 H         -2.494678   2.456204   1.244383 H        1 UNL1     0.0741
     69 H         -1.164201   0.395348   2.248918 H        1 UNL1     0.0359
     70 H         0.950852   0.531504   2.961324 H        1 UNL1     0.0600
     71 H         1.809593   -0.505841   1.260974 H        1 UNL1     0.0348
     72 H         3.389922   1.345481   1.345905 H        1 UNL1     0.0602
     73 H         0.822334   5.417377   -0.123278 H        1 UNL1     0.0628
     74 H         1.634363   5.252217   2.838808 H        1 UNL1     0.1022
     75 H         10.941988   2.337255   -3.420069 H        1 UNL1     0.0279
     76 H         10.784004   3.600769   -4.574137 H        1 UNL1     0.0279
     77 H         11.921435   3.722882   -3.171769 H        1 UNL1     0.0279
     78 H         9.065092   5.002689   -4.826078 H        1 UNL1     0.1553
     79 H         7.773014   3.52644   -4.547784 H        1 UNL1     0.1484
     80 H         4.01544   2.975525   -4.676713 H        1 UNL1     0.0317
     81 H         4.763049   4.520594   -5.055883 H        1 UNL1     0.0317
     82 H         6.647878   3.380013   -6.255965 H        1 UNL1     0.0428
     83 H         5.079118   2.962115   -6.908695 H        1 UNL1     0.0428
     84 H         6.858654   0.136177   -4.272321 H        1 UNL1     0.0428
     85 H         7.780534   1.559574   -4.608775 H        1 UNL1     0.0428
     86 H         6.513745   1.514537   -2.459806 H        1 UNL1     0.0317
     87 H         5.006315   1.352947   -3.236915 H        1 UNL1     0.0317
     88 H         7.189953   1.252534   -7.398922 H        1 UNL1     0.0429
     89 H         6.818745   -0.282183   -6.609566 H        1 UNL1     0.0429
     90 H         4.278649   0.597437   -7.328569 H        1 UNL1     0.0308
     91 H         6.190159   1.563738   -9.534911 H        1 UNL1     0.0233
     92 H         4.417654   1.444245   -9.674344 H        1 UNL1     0.0233
     93 H         5.140217   2.600173   -8.576012 H        1 UNL1     0.0233
     94 H         4.532967   -0.958565   -9.295735 H        1 UNL1     0.0233
     95 H         6.23752   -1.121798   -8.846086 H        1 UNL1     0.0233
     96 H         4.966659   -1.636817   -7.713099 H        1 UNL1     0.0233
     97 H         4.268407   10.459694   0.505957 H        1 UNL1     0.0280
     98 H         5.878613   11.076854   0.253891 H        1 UNL1     0.0280
     99 H         4.67684   11.167373   -1.067956 H        1 UNL1     0.0280
     100 H         6.78125   10.810457   -2.4294 H        1 UNL1     0.2922
     101 H         4.738787   0.680516   2.426898 H        1 UNL1     0.0236
     102 H         6.067973   1.897648   2.560751 H        1 UNL1     0.0236
     103 H         6.34734   0.325135   1.879096 H        1 UNL1     0.0236
     104 H         4.339096   -0.685335   1.184976 H        1 UNL1     0.2098
     105 H         0.713825   1.32882   -0.857601 H        1 UNL1     0.0234
     106 H         1.274508   -0.356186   -1.05122 H        1 UNL1     0.0234
     107 H         0.0   -0.0   0.0 H        1 UNL1     0.0234
     108 H         1.257599   3.132603   1.934295 H        1 UNL1     0.2098
     109 H         1.106327   3.082442   -0.674262 H        1 UNL1     0.0234
     110 H         -0.171594   2.449818   -1.760314 H        1 UNL1     0.0234
     111 H         0.102905   4.151853   -1.631581 H        1 UNL1     0.0234
     112 H         -3.571343   -1.575919   1.394156 H        1 UNL1     0.0342
     113 H         -3.170142   -0.000202   2.165125 H        1 UNL1     0.0342
     114 H         -4.395238   -0.087616   0.896476 H        1 UNL1     0.0342
     115 H         -2.587778   1.75169   3.469207 H        1 UNL1     0.0234
     116 H         -1.061721   1.686433   4.35672 H        1 UNL1     0.0234
     117 H         -1.569035   3.113289   3.429164 H        1 UNL1     0.0234
     118 H         1.0265   7.705438   -0.308942 H        1 UNL1     0.0309
     119 H         2.283464   7.869595   -1.574309 H        1 UNL1     0.0309
     120 H         1.512186   6.335226   -1.238155 H        1 UNL1     0.0309
     121 H         -0.240221   6.106272   3.19712 H        1 UNL1     0.0524
     122 H         -1.980114   5.883865   2.973154 H        1 UNL1     0.0524
     123 H         -1.157856   5.084329   4.336377 H        1 UNL1     0.0524
@<TRIPOS>BOND
     1     1     2    1
     2     1    42    1
     3     2     3    2
     4     3     4    1
     5     4     5    2
     6     5     7    1
     7     6    75    1
     8     6    76    1
     9     6    77    1
    10     7     9   am
    11     9    10    1
    12    10    11    2
    13    10    43    1
    14    11    14    1
    15    11    15    1
    16    12    13   ar
    17    12    27   ar
    18    12    43    1
    19    13    14    1
    20    13    30   ar
    21    14    17    2
    22    15    16    1
    23    16    17    1
    24    16    18    1
    25    16    22    1
    26    18    19    1
    27    19    20    1
    28    20    21    1
    29    21    22    1
    30    23    24    1
    31    23    88    1
    32    23    89    1
    33    24    25    1
    34    24    26    1
    35    24    90    1
    36    25    91    1
    37    25    92    1
    38    25    93    1
    39    26    94    1
    40    26    95    1
    41    26    96    1
    42    27    28   ar
    43    28    29   ar
    44    29    30   ar
    45    29    31    1
    46    30    33    1
    47    31    32    1
    48    32    33    1
    49    32    35    1
    50    34    97    1
    51    34    98    1
    52    34    99    1
    53    35    61    1
    54    36    37    1
    55    36    60    1
    56    37    38    1
    57    38    39    1
    58    39    40    1
    59    40    41    1
    60    41    42    1
    61    45   100    1
    62    47   101    1
    63    47   102    1
    64    47   103    1
    65    48   104    1
    66    49   105    1
    67    49   106    1
    68    49   107    1
    69    50   108    1
    70    51    59    1
    71    52   109    1
    72    52   110    1
    73    52   111    1
    74    53    54    1
    75    54    55    2
    76    54    56    1
    77    56   112    1
    78    56   113    1
    79    56   114    1
    80    57   115    1
    81    57   116    1
    82    57   117    1
    83    58   118    1
    84    58   119    1
    85    58   120    1
    86    59   121    1
    87    59   122    1
    88    59   123    1
    89    60    61    2
    90     1    47    1
    91     1    62    1
    92     2    63    1
    93     3    64    1
    94     4    65    1
    95     5     6    1
    96     7     8    2
    97     9    78    1
    98    15    79    1
    99    18    80    1
   100    18    81    1
   101    19    82    1
   102    19    83    1
   103    20    23    1
   104    21    84    1
   105    21    85    1
   106    22    86    1
   107    22    87    1
   108    27    45    1
   109    28    34    1
   110    32    58    1
   111    33    46    2
   112    36    51    1
   113    36    66    1
   114    37    52    1
   115    37    67    1
   116    38    53    1
   117    38    68    1
   118    42    48    1
   119    42    72    1
   120    43    44    2
   121    60    73    1
   122    61    74    1
   123    39    69    1
   124    39    57    1
   125    40    70    1
   126    40    50    1
   127    41    71    1
   128    41    49    1
