@<TRIPOS>MOLECULE
*****
 123 128 0 0 0
SMALL
GASTEIGER

@<TRIPOS>ATOM
     1 C         2.927686   1.859308   4.03343 C.3        1 UNL1     0.0009
     2 C         3.843032   1.416918   5.583743 C.2        1 UNL1     -0.0787
     3 C         3.860002   1.208811   7.01638 C.2        1 UNL1     -0.0649
     4 C         5.133197   0.626359   7.968264 C.2        1 UNL1     -0.0542
     5 C         5.479066   0.031194   9.206501 C.2        1 UNL1     0.0115
     6 C         4.938376   -0.349732   10.612159 C.3        1 UNL1     -0.0348
     7 C         6.906529   -0.688953   9.350468 C.2        1 UNL1     0.2441
     8 O         7.858139   -0.172215   9.919631 O.2        1 UNL1     -0.2702
     9 N         6.914978   -2.05302   9.010759 N.am        1 UNL1     -0.2772
     10 C         7.153702   -2.211248   7.664915 C.2        1 UNL1     0.1049
     11 C         6.106755   -2.086883   6.869518 C.2        1 UNL1     0.0801
     12 C         8.686335   -1.490446   5.824041 C.ar        1 UNL1     0.0753
     13 C         7.50913   -1.173295   5.074235 C.ar        1 UNL1     0.0305
     14 C         6.181319   -1.585035   5.524168 C.2        1 UNL1     0.0924
     15 N         4.797   -2.036549   7.167069 N.pl3        1 UNL1     -0.3170
     16 C         4.063644   -2.07078   5.929624 C.3        1 UNL1     0.1275
     17 N         5.004454   -1.466477   4.916008 N.2        1 UNL1     -0.2557
     18 C         3.904755   -3.536915   5.538592 C.3        1 UNL1     0.0016
     19 C         3.235087   -4.276415   6.685882 C.3        1 UNL1     0.0026
     20 N         1.94143   -3.660755   6.947497 N.3        1 UNL1     -0.3018
     21 C         1.986408   -2.233595   7.272399 C.3        1 UNL1     0.0026
     22 C         2.658646   -1.5096   6.104571 C.3        1 UNL1     0.0016
     23 C         1.098588   -4.464393   7.810299 C.3        1 UNL1     0.0012
     24 C         0.618333   -5.724117   7.072595 C.3        1 UNL1     -0.0339
     25 C         -0.798844   -6.127253   7.512078 C.3        1 UNL1     -0.0615
     26 C         0.698419   -5.510627   5.570999 C.3        1 UNL1     -0.0615
     27 C         9.956264   -1.201396   5.33023 C.ar        1 UNL1     0.1347
     28 C         10.175542   -0.634946   4.087209 C.ar        1 UNL1     0.0342
     29 C         9.000541   -0.286604   3.387785 C.ar        1 UNL1     0.1435
     30 C         7.721236   -0.537085   3.885638 C.ar        1 UNL1     0.0774
     31 O         9.046107   0.172602   2.118115 O.3        1 UNL1     -0.4436
     32 C         7.721347   -0.040348   1.607688 C.3        1 UNL1     0.3143
     33 C         6.829958   -0.099413   2.831677 C.2        1 UNL1     0.2504
     34 C         11.50253   -0.527646   3.388861 C.3        1 UNL1     -0.0327
     35 O         7.35148   1.136477   0.878624 O.2        1 UNL1     -0.4528
     36 C         4.982143   -0.030146   -1.847788 C.3        1 UNL1     0.0854
     37 C         3.622306   -0.818172   -1.715956 C.3        1 UNL1     0.0236
     38 C         2.362728   -0.114387   -2.415881 C.3        1 UNL1     0.1131
     39 C         2.041884   1.40418   -2.110455 C.3        1 UNL1     0.0200
     40 C         2.120695   1.986968   -0.549498 C.3        1 UNL1     0.0661
     41 C         1.39096   1.284724   0.811365 C.3        1 UNL1     0.0091
     42 C         1.927634   1.251333   2.565295 C.3        1 UNL1     0.0661
     43 C         8.51361   -2.218664   7.105496 C.2        1 UNL1     0.2131
     44 O         9.393928   -2.876746   7.629619 O.2        1 UNL1     -0.2851
     45 O         11.047897   -1.500798   6.142717 O.3        1 UNL1     -0.5056
     46 O         5.65407   0.174604   2.921424 O.2        1 UNL1     -0.2836
     47 C         2.674946   3.389876   3.97454 C.3        1 UNL1     -0.0566
     48 O         0.59972   1.641512   3.097762 O.3        1 UNL1     -0.3909
     49 C         0.948384   -0.117834   0.458588 C.3        1 UNL1     -0.0577
     50 O         3.435427   2.398998   -0.234164 O.3        1 UNL1     -0.3910
     51 O         4.893738   1.262415   -2.403577 O.3        1 UNL1     -0.3753
     52 C         3.506067   -1.551897   -0.340062 C.3        1 UNL1     -0.0564
     53 O         1.18235   -1.025823   -2.584156 O.3        1 UNL1     -0.4608
     54 C         -0.131   -0.659556   -2.446714 C.2        1 UNL1     0.3042
     55 O         -0.699704   -0.289586   -1.420295 O.2        1 UNL1     -0.2512
     56 C         -0.898921   -0.678603   -3.737702 C.3        1 UNL1     0.0332
     57 C         2.712119   2.281006   -3.268097 C.3        1 UNL1     -0.0567
     58 C         7.731733   -1.430635   0.930544 C.3        1 UNL1     0.0210
     59 C         5.413691   1.382723   -3.726846 C.3        1 UNL1     0.0372
     60 C         5.759765   0.097777   -0.585211 C.2        1 UNL1     -0.0208
     61 C         6.382189   1.152131   -0.056371 C.2        1 UNL1     0.0882
     62 H         3.844285   1.67125   3.461422 H        1 UNL1     0.0365
     63 H         4.857565   1.303826   5.195923 H        1 UNL1     0.0576
     64 H         2.947017   1.263137   7.613551 H        1 UNL1     0.0615
     65 H         6.0019   0.687257   7.307107 H        1 UNL1     0.0622
     66 H         5.595599   -0.648457   -2.518168 H        1 UNL1     0.0645
     67 H         3.763033   -1.704995   -2.358063 H        1 UNL1     0.0362
     68 H         2.698477   -0.136599   -3.46388 H        1 UNL1     0.0741
     69 H         1.015593   1.605541   -2.387201 H        1 UNL1     0.0359
     70 H         1.556218   2.931396   -0.669836 H        1 UNL1     0.0600
     71 H         0.423405   1.823977   0.81174 H        1 UNL1     0.0348
     72 H         2.477113   2.080142   2.095759 H        1 UNL1     0.0602
     73 H         5.884239   -0.863849   -0.152741 H        1 UNL1     0.0628
     74 H         6.260462   2.178492   -0.404226 H        1 UNL1     0.1022
     75 H         4.383887   0.507596   11.064448 H        1 UNL1     0.0279
     76 H         4.202534   -1.149913   10.648425 H        1 UNL1     0.0279
     77 H         5.740309   -0.502322   11.349262 H        1 UNL1     0.0279
     78 H         6.003972   -2.460852   9.210304 H        1 UNL1     0.1553
     79 H         4.410828   -2.354608   8.03692 H        1 UNL1     0.1484
     80 H         3.309089   -3.599375   4.619872 H        1 UNL1     0.0317
     81 H         4.876487   -3.989369   5.313483 H        1 UNL1     0.0317
     82 H         3.862124   -4.279209   7.589612 H        1 UNL1     0.0428
     83 H         3.133162   -5.320041   6.386704 H        1 UNL1     0.0428
     84 H         0.997695   -1.778167   7.385727 H        1 UNL1     0.0428
     85 H         2.477238   -2.049468   8.238059 H        1 UNL1     0.0428
     86 H         2.554746   -0.461379   6.315348 H        1 UNL1     0.0317
     87 H         2.067996   -1.644377   5.190206 H        1 UNL1     0.0317
     88 H         1.695081   -4.773848   8.678473 H        1 UNL1     0.0429
     89 H         0.250527   -3.882514   8.193684 H        1 UNL1     0.0429
     90 H         1.301558   -6.552552   7.294205 H        1 UNL1     0.0308
     91 H         -1.468338   -5.262267   7.538114 H        1 UNL1     0.0233
     92 H         -1.212629   -6.880867   6.837943 H        1 UNL1     0.0233
     93 H         -0.814574   -6.571992   8.514472 H        1 UNL1     0.0233
     94 H         -0.146544   -5.999736   5.074365 H        1 UNL1     0.0233
     95 H         0.651302   -4.442209   5.34247 H        1 UNL1     0.0233
     96 H         1.625252   -5.91925   5.158715 H        1 UNL1     0.0233
     97 H         11.497429   -1.028082   2.425135 H        1 UNL1     0.0280
     98 H         11.779621   0.514847   3.18469 H        1 UNL1     0.0280
     99 H         12.286222   -0.987537   4.012898 H        1 UNL1     0.0280
     100 H         10.974431   -1.189219   7.027672 H        1 UNL1     0.2922
     101 H         3.35932   3.848344   3.261032 H        1 UNL1     0.0236
     102 H         2.720778   3.869799   4.951554 H        1 UNL1     0.0236
     103 H         1.669071   3.629057   3.590873 H        1 UNL1     0.0236
     104 H         -0.027551   1.650239   2.348479 H        1 UNL1     0.2098
     105 H         1.597918   -0.629584   -0.247124 H        1 UNL1     0.0234
     106 H         0.741654   -0.759127   1.315286 H        1 UNL1     0.0234
     107 H         -0.0   0.0   0.0 H        1 UNL1     0.0234
     108 H         3.41637   2.760889   0.672721 H        1 UNL1     0.2098
     109 H         4.304607   -2.292843   -0.194991 H        1 UNL1     0.0234
     110 H         3.483696   -0.865484   0.513214 H        1 UNL1     0.0234
     111 H         2.564009   -2.110143   -0.257398 H        1 UNL1     0.0234
     112 H         -0.758973   0.268273   -4.267972 H        1 UNL1     0.0342
     113 H         -0.621801   -1.523287   -4.366634 H        1 UNL1     0.0342
     114 H         -1.967123   -0.776842   -3.50009 H        1 UNL1     0.0342
     115 H         2.111173   3.169079   -3.507635 H        1 UNL1     0.0234
     116 H         3.723694   2.62134   -3.038015 H        1 UNL1     0.0234
     117 H         2.738579   1.771341   -4.246607 H        1 UNL1     0.0234
     118 H         7.64595   -1.357506   -0.167773 H        1 UNL1     0.0309
     119 H         8.616313   -2.024364   1.181952 H        1 UNL1     0.0309
     120 H         6.866741   -2.041421   1.211322 H        1 UNL1     0.0309
     121 H         4.605594   1.152907   -4.420762 H        1 UNL1     0.0524
     122 H         5.760801   2.405656   -3.948565 H        1 UNL1     0.0524
     123 H         6.239188   0.69136   -3.870604 H        1 UNL1     0.0524
@<TRIPOS>BOND
     1     1     2    1
     2     1    42    1
     3     2     3    2
     4     3     4    1
     5     4     5    2
     6     5     7    1
     7     6    75    1
     8     6    76    1
     9     6    77    1
    10     7     9   am
    11     9    10    1
    12    10    11    2
    13    10    43    1
    14    11    14    1
    15    11    15    1
    16    12    13   ar
    17    12    27   ar
    18    12    43    1
    19    13    14    1
    20    13    30   ar
    21    14    17    2
    22    15    16    1
    23    16    17    1
    24    16    18    1
    25    16    22    1
    26    18    19    1
    27    19    20    1
    28    20    21    1
    29    21    22    1
    30    23    24    1
    31    23    88    1
    32    23    89    1
    33    24    25    1
    34    24    26    1
    35    24    90    1
    36    25    91    1
    37    25    92    1
    38    25    93    1
    39    26    94    1
    40    26    95    1
    41    26    96    1
    42    27    28   ar
    43    28    29   ar
    44    29    30   ar
    45    29    31    1
    46    30    33    1
    47    31    32    1
    48    32    33    1
    49    32    35    1
    50    34    97    1
    51    34    98    1
    52    34    99    1
    53    35    61    1
    54    36    37    1
    55    36    60    1
    56    37    38    1
    57    38    39    1
    58    39    40    1
    59    40    41    1
    60    41    42    1
    61    45   100    1
    62    47   101    1
    63    47   102    1
    64    47   103    1
    65    48   104    1
    66    49   105    1
    67    49   106    1
    68    49   107    1
    69    50   108    1
    70    51    59    1
    71    52   109    1
    72    52   110    1
    73    52   111    1
    74    53    54    1
    75    54    55    2
    76    54    56    1
    77    56   112    1
    78    56   113    1
    79    56   114    1
    80    57   115    1
    81    57   116    1
    82    57   117    1
    83    58   118    1
    84    58   119    1
    85    58   120    1
    86    59   121    1
    87    59   122    1
    88    59   123    1
    89    60    61    2
    90     1    47    1
    91     1    62    1
    92     2    63    1
    93     3    64    1
    94     4    65    1
    95     5     6    1
    96     7     8    2
    97     9    78    1
    98    15    79    1
    99    18    80    1
   100    18    81    1
   101    19    82    1
   102    19    83    1
   103    20    23    1
   104    21    84    1
   105    21    85    1
   106    22    86    1
   107    22    87    1
   108    27    45    1
   109    28    34    1
   110    32    58    1
   111    33    46    2
   112    36    51    1
   113    36    66    1
   114    37    52    1
   115    37    67    1
   116    38    53    1
   117    38    68    1
   118    42    48    1
   119    42    72    1
   120    43    44    2
   121    60    73    1
   122    61    74    1
   123    39    69    1
   124    39    57    1
   125    40    70    1
   126    40    50    1
   127    41    71    1
   128    41    49    1
