@<TRIPOS>MOLECULE
*****
 123 128 0 0 0
SMALL
GASTEIGER

@<TRIPOS>ATOM
     1 C         2.898201   -4.297105   1.773998 C.3        1 UNL1     0.0009
     2 C         2.854174   -5.894929   2.713177 C.2        1 UNL1     -0.0787
     3 C         3.118617   -6.650549   3.919475 C.2        1 UNL1     -0.0649
     4 C         2.700031   -8.256518   4.254147 C.2        1 UNL1     -0.0542
     5 C         2.493004   -9.213078   5.278457 C.2        1 UNL1     0.0115
     6 C         2.665883   -9.484066   6.798326 C.3        1 UNL1     -0.0348
     7 C         1.663371   -10.54533   4.94111 C.2        1 UNL1     0.2441
     8 O         2.195831   -11.629214   4.745642 O.2        1 UNL1     -0.2702
     9 N         0.275903   -10.441884   5.142063 N.am        1 UNL1     -0.2772
     10 C         -0.339647   -9.966969   4.006776 C.2        1 UNL1     0.1049
     11 C         -0.331427   -8.656227   3.845195 C.2        1 UNL1     0.0801
     12 C         -0.474961   -10.309816   1.532613 C.ar        1 UNL1     0.0753
     13 C         -0.253169   -8.901643   1.404297 C.ar        1 UNL1     0.0305
     14 C         -0.305743   -8.010253   2.560892 C.2        1 UNL1     0.0924
     15 N         -0.003141   -7.681281   4.710202 N.pl3        1 UNL1     -0.3170
     16 C         -0.330177   -6.421382   4.09705 C.3        1 UNL1     0.1275
     17 N         -0.224244   -6.68383   2.614612 N.2        1 UNL1     -0.2557
     18 C         -1.806048   -6.152751   4.375155 C.3        1 UNL1     0.0016
     19 C         -2.033814   -6.197575   5.877721 C.3        1 UNL1     0.0026
     20 N         -1.190222   -5.192097   6.508907 N.3        1 UNL1     -0.3018
     21 C         0.243974   -5.330953   6.247812 C.3        1 UNL1     0.0026
     22 C         0.450245   -5.278563   4.733018 C.3        1 UNL1     0.0016
     23 C         -1.545194   -4.945931   7.892396 C.3        1 UNL1     0.0012
     24 C         -0.869826   -5.974605   8.812974 C.3        1 UNL1     -0.0339
     25 C         -1.044133   -5.603122   10.294755 C.3        1 UNL1     -0.0615
     26 C         -1.403259   -7.365938   8.518996 C.3        1 UNL1     -0.0615
     27 C         -0.543179   -11.134749   0.412368 C.ar        1 UNL1     0.1347
     28 C         -0.444525   -10.662302   -0.884209 C.ar        1 UNL1     0.0342
     29 C         -0.177614   -9.280311   -0.984331 C.ar        1 UNL1     0.1435
     30 C         -0.070664   -8.447617   0.1303 C.ar        1 UNL1     0.0774
     31 O         -0.163355   -8.650042   -2.179139 O.3        1 UNL1     -0.4436
     32 C         -0.339744   -7.261787   -1.858973 C.3        1 UNL1     0.3143
     33 C         0.125481   -7.124102   -0.423417 C.2        1 UNL1     0.2504
     34 C         -0.756847   -11.440153   -2.132208 C.3        1 UNL1     -0.0327
     35 O         0.5792   -6.517839   -2.668502 O.2        1 UNL1     -0.4528
     36 C         -1.056137   -3.145143   -3.267405 C.3        1 UNL1     0.0854
     37 C         -1.558897   -2.081148   -2.217324 C.3        1 UNL1     0.0236
     38 C         -0.947476   -0.609934   -2.400185 C.3        1 UNL1     0.1131
     39 C         0.617757   -0.420548   -2.528441 C.3        1 UNL1     0.0200
     40 C         1.655102   -1.258399   -1.526265 C.3        1 UNL1     0.0661
     41 C         1.539527   -1.358983   0.163154 C.3        1 UNL1     0.0091
     42 C         1.997518   -2.716828   1.308538 C.3        1 UNL1     0.0661
     43 C         -0.719237   -10.849297   2.89333 C.2        1 UNL1     0.2131
     44 O         -1.290872   -11.903017   3.106979 O.2        1 UNL1     -0.2851
     45 O         -0.716054   -12.500635   0.626624 O.3        1 UNL1     -0.5056
     46 O         0.577242   -6.147704   0.131932 O.2        1 UNL1     -0.2836
     47 C         4.347639   -3.979627   1.317577 C.3        1 UNL1     -0.0566
     48 O         2.722175   -1.830601   2.251189 O.3        1 UNL1     -0.3909
     49 C         0.175626   -0.863385   0.589357 C.3        1 UNL1     -0.0577
     50 O         1.95639   -2.529276   -2.06647 O.3        1 UNL1     -0.3910
     51 O         -0.012845   -2.726005   -4.117874 O.3        1 UNL1     -0.3753
     52 C         -1.785887   -2.717602   -0.807235 C.3        1 UNL1     -0.0564
     53 O         -1.687843   0.447529   -1.634708 O.3        1 UNL1     -0.4608
     54 C         -1.114998   1.522305   -1.006508 C.2        1 UNL1     0.3042
     55 O         0.085422   1.751469   -0.863983 O.2        1 UNL1     -0.2512
     56 C         -2.112378   2.52717   -0.504321 C.3        1 UNL1     0.0332
     57 C         0.970648   -0.364607   -4.087451 C.3        1 UNL1     -0.0567
     58 C         -1.860761   -6.988922   -1.918819 C.3        1 UNL1     0.0210
     59 C         -0.400188   -2.491267   -5.470918 C.3        1 UNL1     0.0372
     60 C         -0.639567   -4.451571   -2.688719 C.2        1 UNL1     -0.0208
     61 C         0.429695   -5.207497   -2.941701 C.2        1 UNL1     0.0882
     62 H         2.408183   -4.800691   0.93198 H        1 UNL1     0.0365
     63 H         2.479822   -6.573195   1.943575 H        1 UNL1     0.0576
     64 H         3.491055   -6.169065   4.826432 H        1 UNL1     0.0615
     65 H         2.421092   -8.662011   3.2778 H        1 UNL1     0.0622
     66 H         -1.937697   -3.358015   -3.888358 H        1 UNL1     0.0645
     67 H         -2.615805   -1.914924   -2.489121 H        1 UNL1     0.0362
     68 H         -1.353463   -0.364143   -3.393303 H        1 UNL1     0.0741
     69 H         0.862251   0.611188   -2.313613 H        1 UNL1     0.0359
     70 H         2.580197   -0.668854   -1.673562 H        1 UNL1     0.0600
     71 H         2.181286   -0.503626   0.452063 H        1 UNL1     0.0348
     72 H         2.544275   -2.910749   0.374318 H        1 UNL1     0.0602
     73 H         -1.417933   -4.82349   -2.069792 H        1 UNL1     0.0628
     74 H         1.295532   -4.878161   -3.517116 H        1 UNL1     0.1022
     75 H         3.048923   -8.572834   7.317914 H        1 UNL1     0.0279
     76 H         1.760218   -9.709059   7.357091 H        1 UNL1     0.0279
     77 H         3.465418   -10.20821   7.012941 H        1 UNL1     0.0279
     78 H         0.087339   -9.780339   5.892316 H        1 UNL1     0.1553
     79 H         0.034071   -7.808474   5.704873 H        1 UNL1     0.1484
     80 H         -2.076283   -5.175106   3.958083 H        1 UNL1     0.0317
     81 H         -2.439567   -6.892955   3.874753 H        1 UNL1     0.0317
     82 H         -1.833927   -7.197504   6.290153 H        1 UNL1     0.0428
     83 H         -3.092664   -6.005316   6.053567 H        1 UNL1     0.0428
     84 H         0.84666   -4.518958   6.666436 H        1 UNL1     0.0428
     85 H         0.658049   -6.236956   6.711511 H        1 UNL1     0.0428
     86 H         1.514029   -5.248753   4.586516 H        1 UNL1     0.0317
     87 H         0.113013   -4.310775   4.342177 H        1 UNL1     0.0317
     88 H         -1.186002   -3.944734   8.164206 H        1 UNL1     0.0429
     89 H         -2.63407   -4.945487   8.030682 H        1 UNL1     0.0429
     90 H         0.20223   -6.010666   8.585801 H        1 UNL1     0.0308
     91 H         -0.653358   -4.602517   10.502568 H        1 UNL1     0.0233
     92 H         -2.0975   -5.643512   10.581801 H        1 UNL1     0.0233
     93 H         -0.518211   -6.295254   10.963481 H        1 UNL1     0.0233
     94 H         -2.33901   -7.29998   7.953437 H        1 UNL1     0.0233
     95 H         -0.682109   -7.922427   7.913831 H        1 UNL1     0.0233
     96 H         -1.594943   -7.922761   9.440502 H        1 UNL1     0.0233
     97 H         -0.019054   -12.213043   -2.325947 H        1 UNL1     0.0280
     98 H         -1.723285   -11.956851   -2.066812 H        1 UNL1     0.0280
     99 H         -0.777257   -10.757273   -2.997283 H        1 UNL1     0.0280
     100 H         -1.612938   -12.773734   0.70811 H        1 UNL1     0.2922
     101 H         4.325795   -3.266894   0.493447 H        1 UNL1     0.0236
     102 H         4.924738   -4.870635   1.072535 H        1 UNL1     0.0236
     103 H         4.929696   -3.476275   2.107538 H        1 UNL1     0.0236
     104 H         3.199463   -1.163001   1.720645 H        1 UNL1     0.2098
     105 H         -0.634907   -1.563606   0.403508 H        1 UNL1     0.0234
     106 H         0.125765   -0.490689   1.612362 H        1 UNL1     0.0234
     107 H         0.0   0.0   0.0 H        1 UNL1     0.0234
     108 H         2.367217   -3.057021   -1.354799 H        1 UNL1     0.2098
     109 H         -2.545659   -3.511382   -0.826548 H        1 UNL1     0.0234
     110 H         -0.865267   -3.102485   -0.355496 H        1 UNL1     0.0234
     111 H         -2.148512   -1.976638   -0.082376 H        1 UNL1     0.0234
     112 H         -1.808737   2.892233   0.481517 H        1 UNL1     0.0342
     113 H         -2.248821   3.352444   -1.201567 H        1 UNL1     0.0342
     114 H         -3.081706   2.022121   -0.392547 H        1 UNL1     0.0342
     115 H         1.822404   0.299281   -4.28982 H        1 UNL1     0.0234
     116 H         1.20142   -1.337661   -4.525581 H        1 UNL1     0.0234
     117 H         0.18293   0.106584   -4.700167 H        1 UNL1     0.0234
     118 H         -2.351327   -7.552081   -2.731962 H        1 UNL1     0.0309
     119 H         -2.373049   -7.202721   -0.975392 H        1 UNL1     0.0309
     120 H         -2.091468   -5.945377   -2.159435 H        1 UNL1     0.0309
     121 H         0.396039   -1.920024   -5.947426 H        1 UNL1     0.0524
     122 H         -0.522681   -3.428108   -6.039567 H        1 UNL1     0.0524
     123 H         -1.332347   -1.934409   -5.503802 H        1 UNL1     0.0524
@<TRIPOS>BOND
     1     1     2    1
     2     1    42    1
     3     2     3    2
     4     3     4    1
     5     4     5    2
     6     5     7    1
     7     6    75    1
     8     6    76    1
     9     6    77    1
    10     7     9   am
    11     9    10    1
    12    10    11    2
    13    10    43    1
    14    11    14    1
    15    11    15    1
    16    12    13   ar
    17    12    27   ar
    18    12    43    1
    19    13    14    1
    20    13    30   ar
    21    14    17    2
    22    15    16    1
    23    16    17    1
    24    16    18    1
    25    16    22    1
    26    18    19    1
    27    19    20    1
    28    20    21    1
    29    21    22    1
    30    23    24    1
    31    23    88    1
    32    23    89    1
    33    24    25    1
    34    24    26    1
    35    24    90    1
    36    25    91    1
    37    25    92    1
    38    25    93    1
    39    26    94    1
    40    26    95    1
    41    26    96    1
    42    27    28   ar
    43    28    29   ar
    44    29    30   ar
    45    29    31    1
    46    30    33    1
    47    31    32    1
    48    32    33    1
    49    32    35    1
    50    34    97    1
    51    34    98    1
    52    34    99    1
    53    35    61    1
    54    36    37    1
    55    36    60    1
    56    37    38    1
    57    38    39    1
    58    39    40    1
    59    40    41    1
    60    41    42    1
    61    45   100    1
    62    47   101    1
    63    47   102    1
    64    47   103    1
    65    48   104    1
    66    49   105    1
    67    49   106    1
    68    49   107    1
    69    50   108    1
    70    51    59    1
    71    52   109    1
    72    52   110    1
    73    52   111    1
    74    53    54    1
    75    54    55    2
    76    54    56    1
    77    56   112    1
    78    56   113    1
    79    56   114    1
    80    57   115    1
    81    57   116    1
    82    57   117    1
    83    58   118    1
    84    58   119    1
    85    58   120    1
    86    59   121    1
    87    59   122    1
    88    59   123    1
    89    60    61    2
    90     1    47    1
    91     1    62    1
    92     2    63    1
    93     3    64    1
    94     4    65    1
    95     5     6    1
    96     7     8    2
    97     9    78    1
    98    15    79    1
    99    18    80    1
   100    18    81    1
   101    19    82    1
   102    19    83    1
   103    20    23    1
   104    21    84    1
   105    21    85    1
   106    22    86    1
   107    22    87    1
   108    27    45    1
   109    28    34    1
   110    32    58    1
   111    33    46    2
   112    36    51    1
   113    36    66    1
   114    37    52    1
   115    37    67    1
   116    38    53    1
   117    38    68    1
   118    42    48    1
   119    42    72    1
   120    43    44    2
   121    60    73    1
   122    61    74    1
   123    39    69    1
   124    39    57    1
   125    40    70    1
   126    40    50    1
   127    41    71    1
   128    41    49    1
