@<TRIPOS>MOLECULE
*****
 123 128 0 0 0
SMALL
GASTEIGER

@<TRIPOS>ATOM
     1 C         5.166975   1.758536   0.457374 C.3        1 UNL1     0.0009
     2 C         6.596405   2.567678   -0.402311 C.2        1 UNL1     -0.0787
     3 C         7.873994   2.472169   -1.076617 C.2        1 UNL1     -0.0649
     4 C         8.744009   3.709222   -1.837625 C.2        1 UNL1     -0.0542
     5 C         9.757181   4.004131   -2.782923 C.2        1 UNL1     0.0115
     6 C         10.880768   3.381136   -3.656279 C.3        1 UNL1     -0.0348
     7 C         9.845625   5.487767   -3.389546 C.2        1 UNL1     0.2441
     8 O         10.670438   6.310868   -3.017102 O.2        1 UNL1     -0.2702
     9 N         9.087207   5.693679   -4.555116 N.am        1 UNL1     -0.2772
     10 C         7.805877   6.077796   -4.23267 C.2        1 UNL1     0.1049
     11 C         6.963923   5.104667   -3.935425 C.2        1 UNL1     0.0801
     12 C         6.513861   7.681492   -2.812744 C.ar        1 UNL1     0.0753
     13 C         5.759971   6.551976   -2.36058 C.ar        1 UNL1     0.0305
     14 C         5.87509   5.246714   -3.007178 C.2        1 UNL1     0.0924
     15 N         7.088023   3.775979   -4.095782 N.pl3        1 UNL1     -0.3170
     16 C         5.82144   3.174272   -3.773337 C.3        1 UNL1     0.1275
     17 N         5.18977   4.127963   -2.788862 N.2        1 UNL1     -0.2557
     18 C         4.960059   3.232121   -5.031263 C.3        1 UNL1     0.0016
     19 C         5.708694   2.549848   -6.165123 C.3        1 UNL1     0.0026
     20 N         5.984046   1.17214   -5.781546 N.3        1 UNL1     -0.3018
     21 C         6.755969   1.012804   -4.5474 C.3        1 UNL1     0.0026
     22 C         5.983407   1.701463   -3.420994 C.3        1 UNL1     0.0016
     23 C         6.4227   0.35382   -6.89446 C.3        1 UNL1     0.0012
     24 C         5.261201   0.102451   -7.868878 C.3        1 UNL1     -0.0339
     25 C         5.326925   1.049402   -9.078432 C.3        1 UNL1     -0.0615
     26 C         5.24843   -1.354045   -8.299271 C.3        1 UNL1     -0.0615
     27 C         6.310382   8.948614   -2.271343 C.ar        1 UNL1     0.1347
     28 C         5.357244   9.21601   -1.304867 C.ar        1 UNL1     0.0342
     29 C         4.660947   8.080067   -0.840144 C.ar        1 UNL1     0.1435
     30 C         4.879464   6.798627   -1.347474 C.ar        1 UNL1     0.0774
     31 O         3.625465   8.191359   0.02032 O.3        1 UNL1     -0.4436
     32 C         2.905216   6.957204   -0.117431 C.3        1 UNL1     0.3143
     33 C         3.916835   5.966216   -0.656674 C.2        1 UNL1     0.2504
     34 C         4.910744   10.581112   -0.860755 C.3        1 UNL1     -0.0327
     35 O         2.554222   6.519388   1.201042 O.2        1 UNL1     -0.4528
     36 C         -0.687698   4.581116   0.825345 C.3        1 UNL1     0.0854
     37 C         -0.996581   3.320237   -0.070367 C.3        1 UNL1     0.0236
     38 C         -1.589439   2.057791   0.721146 C.3        1 UNL1     0.1131
     39 C         -0.853981   1.527832   2.017493 C.3        1 UNL1     0.0200
     40 C         0.807725   1.385459   2.047505 C.3        1 UNL1     0.0661
     41 C         1.760728   0.618843   0.872049 C.3        1 UNL1     0.0091
     42 C         3.463808   0.984853   0.29676 C.3        1 UNL1     0.0661
     43 C         7.456782   7.475969   -3.940095 C.2        1 UNL1     0.2131
     44 O         7.850131   8.37504   -4.660987 O.2        1 UNL1     -0.2851
     45 O         7.117582   9.985423   -2.734912 O.3        1 UNL1     -0.5056
     46 O         3.936002   4.762673   -0.526404 O.2        1 UNL1     -0.2836
     47 C         5.573769   1.329364   1.892752 C.3        1 UNL1     -0.0566
     48 O         3.915609   -0.425416   0.375081 O.3        1 UNL1     -0.3909
     49 C         0.918712   0.385046   -0.362391 C.3        1 UNL1     -0.0577
     50 O         1.408206   2.604345   2.436686 O.3        1 UNL1     -0.3910
     51 O         -0.802113   4.390766   2.217504 O.3        1 UNL1     -0.3753
     52 C         0.040446   3.162129   -1.229904 C.3        1 UNL1     -0.0564
     53 O         -2.196059   1.017938   -0.17498 O.3        1 UNL1     -0.4608
     54 C         -2.425691   -0.289367   0.165832 C.2        1 UNL1     0.3042
     55 O         -1.856597   -1.287165   -0.275043 O.2        1 UNL1     -0.2512
     56 C         -3.459712   -0.457456   1.242521 C.3        1 UNL1     0.0332
     57 C         -1.567833   2.195049   3.283751 C.3        1 UNL1     -0.0567
     58 C         1.822324   7.200574   -1.1943 C.3        1 UNL1     0.0210
     59 C         -1.112606   5.568938   2.960047 C.3        1 UNL1     0.0372
     60 C         0.63852   5.212815   0.586046 C.2        1 UNL1     -0.0208
     61 C         1.556418   5.649525   1.449464 C.2        1 UNL1     0.0882
     62 H         4.689769   2.741769   0.548142 H        1 UNL1     0.0365
     63 H         6.328854   3.620933   -0.294887 H        1 UNL1     0.0576
     64 H         8.332007   1.506265   -1.301035 H        1 UNL1     0.0615
     65 H         8.257509   4.623577   -1.487259 H        1 UNL1     0.0622
     66 H         -1.435834   5.326313   0.520353 H        1 UNL1     0.0645
     67 H         -1.866791   3.628134   -0.675754 H        1 UNL1     0.0362
     68 H         -2.534967   2.492746   1.079355 H        1 UNL1     0.0741
     69 H         -1.182255   0.516041   2.214784 H        1 UNL1     0.0359
     70 H         0.92666   0.725072   2.927735 H        1 UNL1     0.0600
     71 H         1.80912   -0.402369   1.298362 H        1 UNL1     0.0348
     72 H         3.363555   1.472553   1.277277 H        1 UNL1     0.0602
     73 H         0.749095   5.410608   -0.45121 H        1 UNL1     0.0628
     74 H         1.546439   5.438499   2.519327 H        1 UNL1     0.1022
     75 H         10.909635   2.272477   -3.525599 H        1 UNL1     0.0279
     76 H         10.773157   3.48733   -4.73341 H        1 UNL1     0.0279
     77 H         11.888372   3.665468   -3.319247 H        1 UNL1     0.0279
     78 H         9.023355   4.823773   -5.079773 H        1 UNL1     0.1553
     79 H         7.74996   3.34945   -4.717751 H        1 UNL1     0.1484
     80 H         4.001039   2.739291   -4.830852 H        1 UNL1     0.0317
     81 H         4.729661   4.268522   -5.300414 H        1 UNL1     0.0317
     82 H         6.636659   3.083004   -6.419167 H        1 UNL1     0.0428
     83 H         5.077479   2.604067   -7.052636 H        1 UNL1     0.0428
     84 H         6.88035   -0.03001   -4.239374 H        1 UNL1     0.0428
     85 H         7.784639   1.382838   -4.657998 H        1 UNL1     0.0428
     86 H         6.506378   1.451812   -2.51647 H        1 UNL1     0.0317
     87 H         5.005737   1.221916   -3.289498 H        1 UNL1     0.0317
     88 H         7.214177   0.897298   -7.426898 H        1 UNL1     0.0429
     89 H         6.859442   -0.59123   -6.546737 H        1 UNL1     0.0429
     90 H         4.31167   0.268728   -7.346427 H        1 UNL1     0.0308
     91 H         6.278602   0.951129   -9.609239 H        1 UNL1     0.0233
     92 H         4.50705   0.847847   -9.771822 H        1 UNL1     0.0233
     93 H         5.231094   2.103075   -8.789598 H        1 UNL1     0.0233
     94 H         4.551022   -1.495728   -9.131967 H        1 UNL1     0.0233
     95 H         6.244263   -1.65196   -8.639163 H        1 UNL1     0.0233
     96 H         4.944641   -2.00999   -7.478652 H        1 UNL1     0.0233
     97 H         4.116136   10.529716   -0.122387 H        1 UNL1     0.0280
     98 H         5.723167   11.149078   -0.388908 H        1 UNL1     0.0280
     99 H         4.538961   11.148585   -1.729574 H        1 UNL1     0.0280
     100 H         6.646986   10.735759   -3.052966 H        1 UNL1     0.2922
     101 H         4.712054   0.905332   2.407825 H        1 UNL1     0.0236
     102 H         6.037951   2.13204   2.464793 H        1 UNL1     0.0236
     103 H         6.322366   0.519578   1.886372 H        1 UNL1     0.0236
     104 H         4.335864   -0.552449   1.248132 H        1 UNL1     0.2098
     105 H         0.70051   1.283639   -0.933993 H        1 UNL1     0.0234
     106 H         1.285204   -0.402072   -1.021221 H        1 UNL1     0.0234
     107 H         0.0   -0.0   0.0 H        1 UNL1     0.0234
     108 H         1.218732   3.257789   1.736059 H        1 UNL1     0.2098
     109 H         1.069443   3.062898   -0.857036 H        1 UNL1     0.0234
     110 H         -0.188233   2.327186   -1.900962 H        1 UNL1     0.0234
     111 H         0.046749   4.039932   -1.889729 H        1 UNL1     0.0234
     112 H         -3.579422   -1.518624   1.481137 H        1 UNL1     0.0342
     113 H         -3.219448   0.118927   2.134653 H        1 UNL1     0.0342
     114 H         -4.420011   -0.088644   0.856556 H        1 UNL1     0.0342
     115 H         -2.639297   1.954881   3.322122 H        1 UNL1     0.0234
     116 H         -1.132077   1.906322   4.242293 H        1 UNL1     0.0234
     117 H         -1.597927   3.297436   3.241577 H        1 UNL1     0.0234
     118 H         0.922485   7.684219   -0.775514 H        1 UNL1     0.0309
     119 H         2.184464   7.790812   -2.042047 H        1 UNL1     0.0309
     120 H         1.433798   6.268036   -1.618007 H        1 UNL1     0.0309
     121 H         -0.276619   6.258882   2.84842 H        1 UNL1     0.0524
     122 H         -2.015039   6.076756   2.580872 H        1 UNL1     0.0524
     123 H         -1.259641   5.324706   4.008295 H        1 UNL1     0.0524
@<TRIPOS>BOND
     1     1     2    1
     2     1    42    1
     3     2     3    2
     4     3     4    1
     5     4     5    2
     6     5     7    1
     7     6    75    1
     8     6    76    1
     9     6    77    1
    10     7     9   am
    11     9    10    1
    12    10    11    2
    13    10    43    1
    14    11    14    1
    15    11    15    1
    16    12    13   ar
    17    12    27   ar
    18    12    43    1
    19    13    14    1
    20    13    30   ar
    21    14    17    2
    22    15    16    1
    23    16    17    1
    24    16    18    1
    25    16    22    1
    26    18    19    1
    27    19    20    1
    28    20    21    1
    29    21    22    1
    30    23    24    1
    31    23    88    1
    32    23    89    1
    33    24    25    1
    34    24    26    1
    35    24    90    1
    36    25    91    1
    37    25    92    1
    38    25    93    1
    39    26    94    1
    40    26    95    1
    41    26    96    1
    42    27    28   ar
    43    28    29   ar
    44    29    30   ar
    45    29    31    1
    46    30    33    1
    47    31    32    1
    48    32    33    1
    49    32    35    1
    50    34    97    1
    51    34    98    1
    52    34    99    1
    53    35    61    1
    54    36    37    1
    55    36    60    1
    56    37    38    1
    57    38    39    1
    58    39    40    1
    59    40    41    1
    60    41    42    1
    61    45   100    1
    62    47   101    1
    63    47   102    1
    64    47   103    1
    65    48   104    1
    66    49   105    1
    67    49   106    1
    68    49   107    1
    69    50   108    1
    70    51    59    1
    71    52   109    1
    72    52   110    1
    73    52   111    1
    74    53    54    1
    75    54    55    2
    76    54    56    1
    77    56   112    1
    78    56   113    1
    79    56   114    1
    80    57   115    1
    81    57   116    1
    82    57   117    1
    83    58   118    1
    84    58   119    1
    85    58   120    1
    86    59   121    1
    87    59   122    1
    88    59   123    1
    89    60    61    2
    90     1    47    1
    91     1    62    1
    92     2    63    1
    93     3    64    1
    94     4    65    1
    95     5     6    1
    96     7     8    2
    97     9    78    1
    98    15    79    1
    99    18    80    1
   100    18    81    1
   101    19    82    1
   102    19    83    1
   103    20    23    1
   104    21    84    1
   105    21    85    1
   106    22    86    1
   107    22    87    1
   108    27    45    1
   109    28    34    1
   110    32    58    1
   111    33    46    2
   112    36    51    1
   113    36    66    1
   114    37    52    1
   115    37    67    1
   116    38    53    1
   117    38    68    1
   118    42    48    1
   119    42    72    1
   120    43    44    2
   121    60    73    1
   122    61    74    1
   123    39    69    1
   124    39    57    1
   125    40    70    1
   126    40    50    1
   127    41    71    1
   128    41    49    1
