@<TRIPOS>MOLECULE
*****
 123 128 0 0 0
SMALL
GASTEIGER

@<TRIPOS>ATOM
     1 C         2.087773   4.048496   -3.043453 C.3        1 UNL1     0.0009
     2 C         3.416073   4.540265   -4.239622 C.2        1 UNL1     -0.0787
     3 C         4.673024   5.202406   -4.518349 C.2        1 UNL1     -0.0649
     4 C         5.543747   5.213548   -5.97027 C.2        1 UNL1     -0.0542
     5 C         6.812812   5.430663   -6.561383 C.2        1 UNL1     0.0115
     6 C         8.246774   5.966821   -6.297549 C.3        1 UNL1     -0.0348
     7 C         7.093849   4.852398   -8.032307 C.2        1 UNL1     0.2441
     8 O         7.079034   5.551403   -9.036149 O.2        1 UNL1     -0.2702
     9 N         7.613771   3.54667   -8.06243 N.am        1 UNL1     -0.2772
     10 C         6.593392   2.6236   -8.071911 C.2        1 UNL1     0.1049
     11 C         6.073084   2.319072   -6.896852 C.2        1 UNL1     0.0801
     12 C         4.441497   2.057263   -9.214689 C.ar        1 UNL1     0.0753
     13 C         3.868505   1.942826   -7.908093 C.ar        1 UNL1     0.0305
     14 C         4.698975   1.941285   -6.705859 C.2        1 UNL1     0.0924
     15 N         6.511076   2.603374   -5.65836 N.pl3        1 UNL1     -0.3170
     16 C         5.676087   1.896376   -4.723908 C.3        1 UNL1     0.1275
     17 N         4.353794   1.747792   -5.43608 N.2        1 UNL1     -0.2557
     18 C         6.243888   0.486954   -4.586673 C.3        1 UNL1     0.0016
     19 C         7.703187   0.588748   -4.172334 C.3        1 UNL1     0.0026
     20 N         7.781725   1.310498   -2.909821 N.3        1 UNL1     -0.3018
     21 C         7.204011   2.655993   -2.925884 C.3        1 UNL1     0.0026
     22 C         5.736927   2.529538   -3.34009 C.3        1 UNL1     0.0016
     23 C         9.082516   1.204297   -2.279498 C.3        1 UNL1     0.0012
     24 C         9.311462   -0.221497   -1.753711 C.3        1 UNL1     -0.0339
     25 C         10.144364   -0.217302   -0.461305 C.3        1 UNL1     -0.0615
     26 C         7.979467   -0.92455   -1.558042 C.3        1 UNL1     -0.0615
     27 C         3.657522   1.936783   -10.359672 C.ar        1 UNL1     0.1347
     28 C         2.301815   1.663102   -10.324916 C.ar        1 UNL1     0.0342
     29 C         1.750398   1.603144   -9.027415 C.ar        1 UNL1     0.1435
     30 C         2.516857   1.757805   -7.871629 C.ar        1 UNL1     0.0774
     31 O         0.466316   1.236241   -8.823642 O.3        1 UNL1     -0.4436
     32 C         0.417253   0.838216   -7.445222 C.3        1 UNL1     0.3143
     33 C         1.581738   1.549193   -6.785904 C.2        1 UNL1     0.2504
     34 C         1.450618   1.273123   -11.50113 C.3        1 UNL1     -0.0327
     35 O         -0.780233   1.390582   -6.884712 O.2        1 UNL1     -0.4528
     36 C         -1.85406   -1.012831   -4.150011 C.3        1 UNL1     0.0854
     37 C         -1.052545   -1.503041   -2.883208 C.3        1 UNL1     0.0236
     38 C         -1.795724   -1.270022   -1.481376 C.3        1 UNL1     0.1131
     39 C         -2.377557   0.158126   -1.129048 C.3        1 UNL1     0.0200
     40 C         -1.488397   1.533869   -1.443945 C.3        1 UNL1     0.0661
     41 C         0.129684   1.793209   -1.005576 C.3        1 UNL1     0.0091
     42 C         1.449231   2.755861   -1.84074 C.3        1 UNL1     0.0661
     43 C         5.913437   2.21936   -9.31151 C.2        1 UNL1     0.2131
     44 O         6.557079   1.941798   -10.307212 O.2        1 UNL1     -0.2851
     45 O         4.28512   2.106655   -11.592028 O.3        1 UNL1     -0.5056
     46 O         1.701126   1.887272   -5.629486 O.2        1 UNL1     -0.2836
     47 C         1.197295   5.271121   -2.693857 C.3        1 UNL1     -0.0566
     48 O         1.880014   3.453624   -0.605155 O.3        1 UNL1     -0.3909
     49 C         0.740959   0.472937   -0.592394 C.3        1 UNL1     -0.0577
     50 O         -1.708219   1.980826   -2.766681 O.3        1 UNL1     -0.3910
     51 O         -3.030479   -0.28099   -3.889475 O.3        1 UNL1     -0.3753
     52 C         0.487742   -1.29361   -3.052336 C.3        1 UNL1     -0.0564
     53 O         -1.192827   -2.04445   -0.34599 O.3        1 UNL1     -0.4608
     54 C         -1.064842   -1.59633   0.942706 C.2        1 UNL1     0.3042
     55 O         -0.039344   -1.205999   1.499335 O.2        1 UNL1     -0.2512
     56 C         -2.364801   -1.546272   1.693914 C.3        1 UNL1     0.0332
     57 C         -3.924874   0.161832   -1.533981 C.3        1 UNL1     -0.0567
     58 C         0.683734   -0.6849   -7.419996 C.3        1 UNL1     0.0210
     59 C         -4.244048   -0.979864   -4.162767 C.3        1 UNL1     0.0372
     60 C         -1.061247   -0.217521   -5.126786 C.2        1 UNL1     -0.0208
     61 C         -1.362134   0.912487   -5.768109 C.2        1 UNL1     0.0882
     62 H         1.580681   3.514111   -3.855859 H        1 UNL1     0.0365
     63 H         2.994697   4.168471   -5.175934 H        1 UNL1     0.0576
     64 H         5.277091   5.642588   -3.721824 H        1 UNL1     0.0615
     65 H         4.829736   4.83218   -6.705274 H        1 UNL1     0.0622
     66 H         -2.136338   -1.937486   -4.672868 H        1 UNL1     0.0645
     67 H         -1.0733   -2.603893   -2.962296 H        1 UNL1     0.0362
     68 H         -2.675277   -1.91485   -1.630055 H        1 UNL1     0.0741
     69 H         -2.53377   0.216262   -0.060111 H        1 UNL1     0.0359
     70 H         -2.032729   2.261516   -0.812048 H        1 UNL1     0.0600
     71 H         -0.012582   2.283588   -0.022598 H        1 UNL1     0.0348
     72 H         0.498195   3.126734   -2.249761 H        1 UNL1     0.0602
     73 H         -0.181271   -0.754129   -5.381625 H        1 UNL1     0.0628
     74 H         -2.212875   1.550673   -5.526873 H        1 UNL1     0.1022
     75 H         8.206556   6.955769   -5.780443 H        1 UNL1     0.0279
     76 H         8.869491   5.377599   -5.628138 H        1 UNL1     0.0279
     77 H         8.780245   6.227773   -7.223299 H        1 UNL1     0.0279
     78 H         8.16949   3.38041   -7.226002 H        1 UNL1     0.1553
     79 H         7.455302   2.871065   -5.449284 H        1 UNL1     0.1484
     80 H         5.654475   -0.065275   -3.844783 H        1 UNL1     0.0317
     81 H         6.156352   -0.063676   -5.529432 H        1 UNL1     0.0317
     82 H         8.313023   1.077578   -4.946322 H        1 UNL1     0.0428
     83 H         8.088826   -0.42721   -4.082 H        1 UNL1     0.0428
     84 H         7.203927   3.14503   -1.946775 H        1 UNL1     0.0428
     85 H         7.778607   3.339961   -3.565684 H        1 UNL1     0.0428
     86 H         5.314565   3.508979   -3.212438 H        1 UNL1     0.0317
     87 H         5.192057   1.920828   -2.608185 H        1 UNL1     0.0317
     88 H         9.847405   1.425035   -3.035484 H        1 UNL1     0.0429
     89 H         9.199032   1.945314   -1.478193 H        1 UNL1     0.0429
     90 H         9.848109   -0.802508   -2.513085 H        1 UNL1     0.0308
     91 H         10.368314   -1.23545   -0.129157 H        1 UNL1     0.0233
     92 H         11.080657   0.326541   -0.606907 H        1 UNL1     0.0233
     93 H         9.626936   0.281084   0.367378 H        1 UNL1     0.0233
     94 H         8.138764   -1.9292   -1.151669 H        1 UNL1     0.0233
     95 H         7.363603   -0.366976   -0.846856 H        1 UNL1     0.0233
     96 H         7.434069   -1.015888   -2.501528 H        1 UNL1     0.0233
     97 H         0.975588   0.307174   -11.35788 H        1 UNL1     0.0280
     98 H         0.634552   1.986369   -11.675977 H        1 UNL1     0.0280
     99 H         2.075714   1.219781   -12.4075 H        1 UNL1     0.0280
     100 H         4.820937   2.877686   -11.655545 H        1 UNL1     0.2922
     101 H         0.243409   5.192211   -3.214944 H        1 UNL1     0.0236
     102 H         1.687622   6.225931   -2.880676 H        1 UNL1     0.0236
     103 H         0.930523   5.296777   -1.624105 H        1 UNL1     0.0236
     104 H         1.077273   3.65795   -0.086668 H        1 UNL1     0.2098
     105 H         0.978648   -0.19053   -1.420118 H        1 UNL1     0.0234
     106 H         1.593601   0.55689   0.081313 H        1 UNL1     0.0234
     107 H         0.0   0.0   0.0 H        1 UNL1     0.0234
     108 H         -2.674025   2.05511   -2.891059 H        1 UNL1     0.2098
     109 H         0.892456   -1.854228   -3.906517 H        1 UNL1     0.0234
     110 H         0.771865   -0.239272   -3.138288 H        1 UNL1     0.0234
     111 H         1.04327   -1.648256   -2.173951 H        1 UNL1     0.0234
     112 H         -2.196138   -1.161764   2.704386 H        1 UNL1     0.0342
     113 H         -3.116965   -0.956619   1.171992 H        1 UNL1     0.0342
     114 H         -2.748973   -2.571719   1.783552 H        1 UNL1     0.0342
     115 H         -4.577696   0.218539   -0.652054 H        1 UNL1     0.0234
     116 H         -4.206495   0.976653   -2.20391 H        1 UNL1     0.0234
     117 H         -4.26286   -0.785214   -1.988747 H        1 UNL1     0.0234
     118 H         -0.216938   -1.258792   -7.139917 H        1 UNL1     0.0309
     119 H         1.072428   -1.068816   -8.368535 H        1 UNL1     0.0309
     120 H         1.413714   -0.971309   -6.655009 H        1 UNL1     0.0309
     121 H         -5.011826   -0.236516   -4.375624 H        1 UNL1     0.0524
     122 H         -4.160455   -1.633366   -5.047066 H        1 UNL1     0.0524
     123 H         -4.532396   -1.581695   -3.305592 H        1 UNL1     0.0524
@<TRIPOS>BOND
     1     1     2    1
     2     1    42    1
     3     2     3    2
     4     3     4    1
     5     4     5    2
     6     5     7    1
     7     6    75    1
     8     6    76    1
     9     6    77    1
    10     7     9   am
    11     9    10    1
    12    10    11    2
    13    10    43    1
    14    11    14    1
    15    11    15    1
    16    12    13   ar
    17    12    27   ar
    18    12    43    1
    19    13    14    1
    20    13    30   ar
    21    14    17    2
    22    15    16    1
    23    16    17    1
    24    16    18    1
    25    16    22    1
    26    18    19    1
    27    19    20    1
    28    20    21    1
    29    21    22    1
    30    23    24    1
    31    23    88    1
    32    23    89    1
    33    24    25    1
    34    24    26    1
    35    24    90    1
    36    25    91    1
    37    25    92    1
    38    25    93    1
    39    26    94    1
    40    26    95    1
    41    26    96    1
    42    27    28   ar
    43    28    29   ar
    44    29    30   ar
    45    29    31    1
    46    30    33    1
    47    31    32    1
    48    32    33    1
    49    32    35    1
    50    34    97    1
    51    34    98    1
    52    34    99    1
    53    35    61    1
    54    36    37    1
    55    36    60    1
    56    37    38    1
    57    38    39    1
    58    39    40    1
    59    40    41    1
    60    41    42    1
    61    45   100    1
    62    47   101    1
    63    47   102    1
    64    47   103    1
    65    48   104    1
    66    49   105    1
    67    49   106    1
    68    49   107    1
    69    50   108    1
    70    51    59    1
    71    52   109    1
    72    52   110    1
    73    52   111    1
    74    53    54    1
    75    54    55    2
    76    54    56    1
    77    56   112    1
    78    56   113    1
    79    56   114    1
    80    57   115    1
    81    57   116    1
    82    57   117    1
    83    58   118    1
    84    58   119    1
    85    58   120    1
    86    59   121    1
    87    59   122    1
    88    59   123    1
    89    60    61    2
    90     1    47    1
    91     1    62    1
    92     2    63    1
    93     3    64    1
    94     4    65    1
    95     5     6    1
    96     7     8    2
    97     9    78    1
    98    15    79    1
    99    18    80    1
   100    18    81    1
   101    19    82    1
   102    19    83    1
   103    20    23    1
   104    21    84    1
   105    21    85    1
   106    22    86    1
   107    22    87    1
   108    27    45    1
   109    28    34    1
   110    32    58    1
   111    33    46    2
   112    36    51    1
   113    36    66    1
   114    37    52    1
   115    37    67    1
   116    38    53    1
   117    38    68    1
   118    42    48    1
   119    42    72    1
   120    43    44    2
   121    60    73    1
   122    61    74    1
   123    39    69    1
   124    39    57    1
   125    40    70    1
   126    40    50    1
   127    41    71    1
   128    41    49    1
