@<TRIPOS>MOLECULE
*****
 123 128 0 0 0
SMALL
GASTEIGER

@<TRIPOS>ATOM
     1 C         -3.846075   0.501546   1.540766 C.3        1 UNL1     0.0009
     2 C         -5.315798   -0.596373   1.273324 C.2        1 UNL1     -0.0787
     3 C         -6.57237   -0.873604   0.609837 C.2        1 UNL1     -0.0649
     4 C         -7.516348   -2.275277   0.712686 C.2        1 UNL1     -0.0542
     5 C         -8.532802   -3.038969   0.087648 C.2        1 UNL1     0.0115
     6 C         -9.5949   -3.028616   -1.046003 C.3        1 UNL1     -0.0348
     7 C         -8.7174   -4.577527   0.506875 C.2        1 UNL1     0.2441
     8 O         -9.604783   -4.961081   1.256517 O.2        1 UNL1     -0.2702
     9 N         -7.957147   -5.488634   -0.246815 N.am        1 UNL1     -0.2772
     10 C         -6.711865   -5.654727   0.31444 C.2        1 UNL1     0.1049
     11 C         -5.807342   -4.743847   0.004023 C.2        1 UNL1     0.0801
     12 C         -5.560622   -6.113084   2.48743 C.ar        1 UNL1     0.0753
     13 C         -4.735218   -4.979817   2.199292 C.ar        1 UNL1     0.0305
     14 C         -4.746398   -4.339191   0.886081 C.2        1 UNL1     0.0924
     15 N         -5.83356   -3.786865   -0.939389 N.pl3        1 UNL1     -0.3170
     16 C         -4.532506   -3.173764   -0.979642 C.3        1 UNL1     0.1275
     17 N         -3.98642   -3.354261   0.415684 N.2        1 UNL1     -0.2557
     18 C         -3.657509   -4.029262   -1.890797 C.3        1 UNL1     0.0016
     19 C         -4.337268   -4.149006   -3.245485 C.3        1 UNL1     0.0026
     20 N         -4.519504   -2.813503   -3.797074 N.3        1 UNL1     -0.3018
     21 C         -5.29765   -1.896596   -2.961526 C.3        1 UNL1     0.0026
     22 C         -4.594365   -1.787574   -1.607495 C.3        1 UNL1     0.0016
     23 C         -4.880723   -2.827513   -5.200629 C.3        1 UNL1     0.0012
     24 C         -4.140698   -3.955933   -5.936011 C.3        1 UNL1     -0.0339
     25 C         -5.015298   -5.214376   -6.060317 C.3        1 UNL1     -0.0615
     26 C         -3.665868   -3.468821   -7.293965 C.3        1 UNL1     -0.0615
     27 C         -5.456916   -6.792079   3.699176 C.ar        1 UNL1     0.1347
     28 C         -4.540871   -6.456672   4.680204 C.ar        1 UNL1     0.0342
     29 C         -3.772648   -5.307949   4.394839 C.ar        1 UNL1     0.1435
     30 C         -3.890871   -4.596104   3.20047 C.ar        1 UNL1     0.0774
     31 O         -2.761631   -4.917972   5.201542 O.3        1 UNL1     -0.4436
     32 C         -1.952887   -4.061351   4.381172 C.3        1 UNL1     0.3143
     33 C         -2.882338   -3.561259   3.293863 C.2        1 UNL1     0.2504
     34 C         -4.20025   -7.283932   5.888392 C.3        1 UNL1     -0.0327
     35 O         -1.592567   -2.925526   5.176988 O.2        1 UNL1     -0.4528
     36 C         1.785208   -1.776495   3.881436 C.3        1 UNL1     0.0854
     37 C         2.197693   -1.343157   2.422122 C.3        1 UNL1     0.0236
     38 C         2.866587   0.110207   2.312316 C.3        1 UNL1     0.1131
     39 C         2.150313   1.356136   2.973288 C.3        1 UNL1     0.0200
     40 C         0.50277   1.564736   2.816672 C.3        1 UNL1     0.0661
     41 C         -0.374114   1.495722   1.366182 C.3        1 UNL1     0.0091
     42 C         -2.089609   0.934524   1.038254 C.3        1 UNL1     0.0661
     43 C         -6.468333   -6.596238   1.417438 C.2        1 UNL1     0.2131
     44 O         -6.913402   -7.728788   1.372928 O.2        1 UNL1     -0.2851
     45 O         -6.328675   -7.856615   3.918803 O.3        1 UNL1     -0.5056
     46 O         -2.817488   -2.530238   2.66248 O.2        1 UNL1     -0.2836
     47 C         -4.243991   1.73754   2.391626 C.3        1 UNL1     -0.0566
     48 O         -2.440622   2.117275   0.215451 O.3        1 UNL1     -0.3909
     49 C         0.502046   0.885809   0.294807 C.3        1 UNL1     -0.0577
     50 O         -0.189446   0.868365   3.833347 O.3        1 UNL1     -0.3910
     51 O         1.890716   -0.779941   4.872991 O.3        1 UNL1     -0.3753
     52 C         1.193252   -1.879036   1.350263 C.3        1 UNL1     -0.0564
     53 O         3.560214   0.354807   1.00412 O.3        1 UNL1     -0.4608
     54 C         3.578522   1.544407   0.324086 C.2        1 UNL1     0.3042
     55 O         2.662874   2.35971   0.220609 O.2        1 UNL1     -0.2512
     56 C         4.908695   1.861061   -0.298075 C.3        1 UNL1     0.0332
     57 C         2.794347   1.570387   4.42156 C.3        1 UNL1     -0.0567
     58 C         -0.873124   -4.962973   3.738738 C.3        1 UNL1     0.0210
     59 C         2.966711   -0.960782   5.792445 C.3        1 UNL1     0.0372
     60 C         0.421209   -2.359627   4.002368 C.2        1 UNL1     -0.0208
     61 C         -0.539219   -2.133357   4.899656 C.2        1 UNL1     0.0882
     62 H         -3.441892   -0.241732   2.238537 H        1 UNL1     0.0365
     63 H         -5.125979   -1.374943   2.015124 H        1 UNL1     0.0576
     64 H         -6.956518   -0.226663   -0.182 H        1 UNL1     0.0615
     65 H         -7.102113   -2.805801   1.574334 H        1 UNL1     0.0622
     66 H         2.482923   -2.586572   4.136413 H        1 UNL1     0.0645
     67 H         3.05321   -1.997369   2.179932 H        1 UNL1     0.0362
     68 H         3.772765   -0.058431   2.913919 H        1 UNL1     0.0741
     69 H         2.546892   2.260458   2.531323 H        1 UNL1     0.0359
     70 H         0.417326   2.630253   3.103783 H        1 UNL1     0.0600
     71 H         -0.356168   2.565215   1.078398 H        1 UNL1     0.0348
     72 H         -2.040133   1.144481   2.116579 H        1 UNL1     0.0602
     73 H         0.313336   -3.145141   3.296266 H        1 UNL1     0.0628
     74 H         -0.531246   -1.312737   5.617817 H        1 UNL1     0.1022
     75 H         -9.692473   -2.005368   -1.482439 H        1 UNL1     0.0279
     76 H         -9.376453   -3.636651   -1.921013 H        1 UNL1     0.0279
     77 H         -10.615152   -3.20405   -0.674506 H        1 UNL1     0.0279
     78 H         -7.822906   -5.125597   -1.18823 H        1 UNL1     0.1553
     79 H         -6.453304   -3.799502   -1.728496 H        1 UNL1     0.1484
     80 H         -2.669029   -3.562388   -1.978555 H        1 UNL1     0.0317
     81 H         -3.49753   -5.023135   -1.459201 H        1 UNL1     0.0317
     82 H         -5.296804   -4.681987   -3.173826 H        1 UNL1     0.0428
     83 H         -3.697467   -4.764276   -3.878848 H        1 UNL1     0.0428
     84 H         -5.352056   -0.878843   -3.36031 H        1 UNL1     0.0428
     85 H         -6.348246   -2.208297   -2.881477 H        1 UNL1     0.0428
     86 H         -5.112512   -1.012634   -1.073659 H        1 UNL1     0.0317
     87 H         -3.587135   -1.37422   -1.740616 H        1 UNL1     0.0317
     88 H         -5.960488   -3.012119   -5.273576 H        1 UNL1     0.0429
     89 H         -4.688174   -1.854978   -5.671664 H        1 UNL1     0.0429
     90 H         -3.233813   -4.214821   -5.376771 H        1 UNL1     0.0308
     91 H         -4.510648   -5.993885   -6.638934 H        1 UNL1     0.0233
     92 H         -5.26862   -5.607807   -5.073074 H        1 UNL1     0.0233
     93 H         -5.968938   -5.012219   -6.56285 H        1 UNL1     0.0233
     94 H         -4.299221   -2.64597   -7.642701 H        1 UNL1     0.0233
     95 H         -2.640218   -3.096675   -7.219732 H        1 UNL1     0.0233
     96 H         -3.697969   -4.269125   -8.038581 H        1 UNL1     0.0233
     97 H         -3.145627   -7.540537   5.922363 H        1 UNL1     0.0280
     98 H         -4.410766   -6.753195   6.826079 H        1 UNL1     0.0280
     99 H         -4.783127   -8.219379   5.871416 H        1 UNL1     0.0280
     100 H         -7.239022   -7.647097   3.804815 H        1 UNL1     0.2922
     101 H         -3.346605   2.245187   2.744683 H        1 UNL1     0.0236
     102 H         -4.924549   1.495372   3.207211 H        1 UNL1     0.0236
     103 H         -4.778391   2.496005   1.795522 H        1 UNL1     0.0236
     104 H         -1.625465   2.641287   0.089352 H        1 UNL1     0.2098
     105 H         0.628692   1.506258   -0.58883 H        1 UNL1     0.0234
     106 H         1.469435   0.527846   0.646872 H        1 UNL1     0.0234
     107 H         0.0   -0.0   0.0 H        1 UNL1     0.0234
     108 H         -1.141188   1.052446   3.71473 H        1 UNL1     0.2098
     109 H         1.141637   -2.976741   1.340606 H        1 UNL1     0.0234
     110 H         0.184911   -1.465763   1.460701 H        1 UNL1     0.0234
     111 H         1.491056   -1.586529   0.334538 H        1 UNL1     0.0234
     112 H         4.851818   2.813702   -0.833413 H        1 UNL1     0.0342
     113 H         5.712089   1.873294   0.436943 H        1 UNL1     0.0342
     114 H         5.140153   1.076091   -1.03116 H        1 UNL1     0.0342
     115 H         2.844769   2.633899   4.692833 H        1 UNL1     0.0234
     116 H         2.265647   1.051623   5.223688 H        1 UNL1     0.0234
     117 H         3.859262   1.285884   4.475917 H        1 UNL1     0.0234
     118 H         0.133346   -4.756939   4.143179 H        1 UNL1     0.0309
     119 H         -1.088643   -6.031234   3.841562 H        1 UNL1     0.0309
     120 H         -0.756381   -4.779153   2.665105 H        1 UNL1     0.0309
     121 H         3.510176   -0.018296   5.853449 H        1 UNL1     0.0524
     122 H         2.61278   -1.206208   6.807599 H        1 UNL1     0.0524
     123 H         3.626353   -1.752226   5.448086 H        1 UNL1     0.0524
@<TRIPOS>BOND
     1     1     2    1
     2     1    42    1
     3     2     3    2
     4     3     4    1
     5     4     5    2
     6     5     7    1
     7     6    75    1
     8     6    76    1
     9     6    77    1
    10     7     9   am
    11     9    10    1
    12    10    11    2
    13    10    43    1
    14    11    14    1
    15    11    15    1
    16    12    13   ar
    17    12    27   ar
    18    12    43    1
    19    13    14    1
    20    13    30   ar
    21    14    17    2
    22    15    16    1
    23    16    17    1
    24    16    18    1
    25    16    22    1
    26    18    19    1
    27    19    20    1
    28    20    21    1
    29    21    22    1
    30    23    24    1
    31    23    88    1
    32    23    89    1
    33    24    25    1
    34    24    26    1
    35    24    90    1
    36    25    91    1
    37    25    92    1
    38    25    93    1
    39    26    94    1
    40    26    95    1
    41    26    96    1
    42    27    28   ar
    43    28    29   ar
    44    29    30   ar
    45    29    31    1
    46    30    33    1
    47    31    32    1
    48    32    33    1
    49    32    35    1
    50    34    97    1
    51    34    98    1
    52    34    99    1
    53    35    61    1
    54    36    37    1
    55    36    60    1
    56    37    38    1
    57    38    39    1
    58    39    40    1
    59    40    41    1
    60    41    42    1
    61    45   100    1
    62    47   101    1
    63    47   102    1
    64    47   103    1
    65    48   104    1
    66    49   105    1
    67    49   106    1
    68    49   107    1
    69    50   108    1
    70    51    59    1
    71    52   109    1
    72    52   110    1
    73    52   111    1
    74    53    54    1
    75    54    55    2
    76    54    56    1
    77    56   112    1
    78    56   113    1
    79    56   114    1
    80    57   115    1
    81    57   116    1
    82    57   117    1
    83    58   118    1
    84    58   119    1
    85    58   120    1
    86    59   121    1
    87    59   122    1
    88    59   123    1
    89    60    61    2
    90     1    47    1
    91     1    62    1
    92     2    63    1
    93     3    64    1
    94     4    65    1
    95     5     6    1
    96     7     8    2
    97     9    78    1
    98    15    79    1
    99    18    80    1
   100    18    81    1
   101    19    82    1
   102    19    83    1
   103    20    23    1
   104    21    84    1
   105    21    85    1
   106    22    86    1
   107    22    87    1
   108    27    45    1
   109    28    34    1
   110    32    58    1
   111    33    46    2
   112    36    51    1
   113    36    66    1
   114    37    52    1
   115    37    67    1
   116    38    53    1
   117    38    68    1
   118    42    48    1
   119    42    72    1
   120    43    44    2
   121    60    73    1
   122    61    74    1
   123    39    69    1
   124    39    57    1
   125    40    70    1
   126    40    50    1
   127    41    71    1
   128    41    49    1
