@<TRIPOS>MOLECULE
*****
 123 128 0 0 0
SMALL
GASTEIGER

@<TRIPOS>ATOM
     1 C         -1.378   0.412432   -5.195211 C.3        1 UNL1     0.0009
     2 C         -2.656349   0.997024   -6.403976 C.2        1 UNL1     -0.0787
     3 C         -3.835363   0.744906   -7.20548 C.2        1 UNL1     -0.0649
     4 C         -4.714702   1.850015   -8.139211 C.2        1 UNL1     -0.0542
     5 C         -5.958162   2.109117   -8.766707 C.2        1 UNL1     0.0115
     6 C         -7.321318   1.478195   -9.163022 C.3        1 UNL1     -0.0348
     7 C         -6.316727   3.616125   -9.187835 C.2        1 UNL1     0.2441
     8 O         -6.235349   4.02269   -10.338751 O.2        1 UNL1     -0.2702
     9 N         -6.977919   4.362998   -8.197301 N.am        1 UNL1     -0.2772
     10 C         -6.065847   4.983091   -7.374543 C.2        1 UNL1     0.1049
     11 C         -5.570055   4.247338   -6.396238 C.2        1 UNL1     0.0801
     12 C         -4.001731   6.395712   -7.410063 C.ar        1 UNL1     0.0753
     13 C         -3.431215   5.446609   -6.503243 C.ar        1 UNL1     0.0305
     14 C         -4.244131   4.413428   -5.865469 C.2        1 UNL1     0.0924
     15 N         -5.960976   3.047054   -5.934689 N.pl3        1 UNL1     -0.3170
     16 C         -5.199401   2.763564   -4.747301 C.3        1 UNL1     0.1275
     17 N         -3.909134   3.523493   -4.935567 N.2        1 UNL1     -0.2557
     18 C         -5.917872   3.431849   -3.579013 C.3        1 UNL1     0.0016
     19 C         -7.352586   2.930244   -3.539299 C.3        1 UNL1     0.0026
     20 N         -7.337722   1.482037   -3.385997 N.3        1 UNL1     -0.3018
     21 C         -6.615188   0.753621   -4.430853 C.3        1 UNL1     0.0026
     22 C         -5.175456   1.270053   -4.449981 C.3        1 UNL1     0.0016
     23 C         -8.635607   0.938351   -3.038805 C.3        1 UNL1     0.0012
     24 C         -9.713792   2.031178   -3.109538 C.3        1 UNL1     -0.0339
     25 C         -10.939022   1.668546   -2.25434 C.3        1 UNL1     -0.0615
     26 C         -9.124935   3.370819   -2.702856 C.3        1 UNL1     -0.0615
     27 C         -3.247895   7.450215   -7.91984 C.ar        1 UNL1     0.1347
     28 C         -1.930403   7.680796   -7.566148 C.ar        1 UNL1     0.0342
     29 C         -1.375409   6.705742   -6.710336 C.ar        1 UNL1     0.1435
     30 C         -2.10795   5.623866   -6.220286 C.ar        1 UNL1     0.0774
     31 O         -0.137622   6.848553   -6.188326 O.3        1 UNL1     -0.4436
     32 C         -0.118359   5.968117   -5.054601 C.3        1 UNL1     0.3143
     33 C         -1.190252   4.934946   -5.337118 C.2        1 UNL1     0.2504
     34 C         -1.139842   8.922485   -7.87163 C.3        1 UNL1     -0.0327
     35 O         1.1386   5.280332   -5.070697 O.2        1 UNL1     -0.4528
     36 C         1.969112   4.545117   -1.440574 C.3        1 UNL1     0.0854
     37 C         1.131696   3.746432   -0.368959 C.3        1 UNL1     0.0236
     38 C         1.91071   2.530309   0.328126 C.3        1 UNL1     0.1131
     39 C         2.650325   1.455827   -0.566708 C.3        1 UNL1     0.0200
     40 C         1.91524   0.844263   -1.933485 C.3        1 UNL1     0.0661
     41 C         0.340368   0.219807   -2.019761 C.3        1 UNL1     0.0091
     42 C         -0.873508   0.238512   -3.395099 C.3        1 UNL1     0.0661
     43 C         -5.44771   6.271856   -7.720006 C.2        1 UNL1     0.2131
     44 O         -6.128462   7.192441   -8.134541 O.2        1 UNL1     -0.2851
     45 O         -3.865784   8.302929   -8.832272 O.3        1 UNL1     -0.5056
     46 O         -1.259457   3.793117   -4.94052 O.2        1 UNL1     -0.2836
     47 C         -0.354365   -0.517518   -5.900438 C.3        1 UNL1     -0.0566
     48 O         -1.211645   -1.199726   -3.267618 O.3        1 UNL1     -0.3909
     49 C         -0.408572   0.609591   -0.76491 C.3        1 UNL1     -0.0577
     50 O         2.16919   1.670815   -3.051539 O.3        1 UNL1     -0.3910
     51 O         3.221805   3.994086   -1.779036 O.3        1 UNL1     -0.3753
     52 C         -0.377739   3.648534   -0.765154 C.3        1 UNL1     -0.0564
     53 O         1.237929   2.018112   1.568023 O.3        1 UNL1     -0.4608
     54 C         1.550029   0.853031   2.218494 C.2        1 UNL1     0.3042
     55 O         1.589715   0.663566   3.433552 O.2        1 UNL1     -0.2512
     56 C         1.809545   -0.301492   1.293054 C.3        1 UNL1     0.0332
     57 C         4.184261   1.894812   -0.678532 C.3        1 UNL1     -0.0567
     58 C         -0.551094   6.815373   -3.83541 C.3        1 UNL1     0.0210
     59 C         4.28966   4.349504   -0.90198 C.3        1 UNL1     0.0372
     60 C         1.25876   4.814519   -2.720411 C.2        1 UNL1     -0.0208
     61 C         1.675829   4.697513   -3.981802 C.2        1 UNL1     0.0882
     62 H         -0.941552   1.418516   -5.199507 H        1 UNL1     0.0365
     63 H         -2.288435   2.00243   -6.619077 H        1 UNL1     0.0576
     64 H         -4.378755   -0.200554   -7.142717 H        1 UNL1     0.0615
     65 H         -4.054905   2.719465   -8.20407 H        1 UNL1     0.0622
     66 H         2.14208   5.527664   -0.979345 H        1 UNL1     0.0645
     67 H         1.029952   4.453209   0.472869 H        1 UNL1     0.0362
     68 H         2.712085   3.090699   0.833382 H        1 UNL1     0.0741
     69 H         2.823196   0.568066   0.026928 H        1 UNL1     0.0359
     70 H         2.543175   -0.051252   -2.103223 H        1 UNL1     0.0600
     71 H         0.546201   -0.851165   -1.825828 H        1 UNL1     0.0348
     72 H         0.108321   0.42326   -3.854658 H        1 UNL1     0.0602
     73 H         0.322296   5.26893   -2.511141 H        1 UNL1     0.0628
     74 H         2.594311   4.192803   -4.283292 H        1 UNL1     0.1022
     75 H         -7.16384   0.548623   -9.761462 H        1 UNL1     0.0279
     76 H         -7.949299   1.127858   -8.346951 H        1 UNL1     0.0279
     77 H         -7.887259   2.099514   -9.872511 H        1 UNL1     0.0279
     78 H         -7.5398   3.742022   -7.618719 H        1 UNL1     0.1553
     79 H         -6.86763   2.652711   -6.106167 H        1 UNL1     0.1484
     80 H         -5.385289   3.196105   -2.649741 H        1 UNL1     0.0317
     81 H         -5.90155   4.52219   -3.68168 H        1 UNL1     0.0317
     82 H         -7.912802   3.227407   -4.438056 H        1 UNL1     0.0428
     83 H         -7.847069   3.420654   -2.700231 H        1 UNL1     0.0428
     84 H         -6.550849   -0.323852   -4.249951 H        1 UNL1     0.0428
     85 H         -7.11743   0.831069   -5.405056 H        1 UNL1     0.0428
     86 H         -4.646225   0.627139   -5.128629 H        1 UNL1     0.0317
     87 H         -4.693482   1.072028   -3.484795 H        1 UNL1     0.0317
     88 H         -8.883647   0.155032   -3.766941 H        1 UNL1     0.0429
     89 H         -8.617334   0.463568   -2.04935 H        1 UNL1     0.0429
     90 H         -10.037257   2.149781   -4.15046 H        1 UNL1     0.0308
     91 H         -11.450939   2.565252   -1.892453 H        1 UNL1     0.0233
     92 H         -11.643103   1.059959   -2.826616 H        1 UNL1     0.0233
     93 H         -10.671167   1.076695   -1.370711 H        1 UNL1     0.0233
     94 H         -9.906393   4.138258   -2.688773 H        1 UNL1     0.0233
     95 H         -8.701097   3.302777   -1.697026 H        1 UNL1     0.0233
     96 H         -8.340736   3.688825   -3.395584 H        1 UNL1     0.0233
     97 H         -1.085971   9.119096   -8.938248 H        1 UNL1     0.0280
     98 H         -1.587522   9.818922   -7.423032 H        1 UNL1     0.0280
     99 H         -0.112362   8.809313   -7.488783 H        1 UNL1     0.0280
     100 H         -4.770371   8.485036   -8.647391 H        1 UNL1     0.2922
     101 H         -0.790678   -0.917687   -6.815398 H        1 UNL1     0.0236
     102 H         0.027848   -1.304624   -5.251315 H        1 UNL1     0.0236
     103 H         0.542009   0.031193   -6.234538 H        1 UNL1     0.0236
     104 H         -0.393401   -1.710197   -3.425306 H        1 UNL1     0.2098
     105 H         -0.278567   1.647366   -0.468374 H        1 UNL1     0.0234
     106 H         -1.466281   0.346573   -0.765643 H        1 UNL1     0.0234
     107 H         0.0   0.0   0.0 H        1 UNL1     0.0234
     108 H         2.599697   1.116275   -3.730448 H        1 UNL1     0.2098
     109 H         -0.986259   3.187614   0.025395 H        1 UNL1     0.0234
     110 H         -0.8124   4.613818   -1.046295 H        1 UNL1     0.0234
     111 H         -0.522718   3.021939   -1.65527 H        1 UNL1     0.0234
     112 H         2.83049   -0.244024   0.903549 H        1 UNL1     0.0342
     113 H         1.628602   -1.261197   1.77479 H        1 UNL1     0.0342
     114 H         1.119362   -0.220867   0.441989 H        1 UNL1     0.0342
     115 H         4.287152   2.961255   -0.922049 H        1 UNL1     0.0234
     116 H         4.766885   1.706729   0.225473 H        1 UNL1     0.0234
     117 H         4.714   1.430205   -1.52792 H        1 UNL1     0.0234
     118 H         -0.75218   6.19122   -2.947151 H        1 UNL1     0.0309
     119 H         0.175199   7.590621   -3.571416 H        1 UNL1     0.0309
     120 H         -1.501862   7.33404   -4.000123 H        1 UNL1     0.0309
     121 H         4.247015   3.680783   -0.042707 H        1 UNL1     0.0524
     122 H         5.278354   4.221699   -1.373348 H        1 UNL1     0.0524
     123 H         4.183544   5.381416   -0.579502 H        1 UNL1     0.0524
@<TRIPOS>BOND
     1     1     2    1
     2     1    42    1
     3     2     3    2
     4     3     4    1
     5     4     5    2
     6     5     7    1
     7     6    75    1
     8     6    76    1
     9     6    77    1
    10     7     9   am
    11     9    10    1
    12    10    11    2
    13    10    43    1
    14    11    14    1
    15    11    15    1
    16    12    13   ar
    17    12    27   ar
    18    12    43    1
    19    13    14    1
    20    13    30   ar
    21    14    17    2
    22    15    16    1
    23    16    17    1
    24    16    18    1
    25    16    22    1
    26    18    19    1
    27    19    20    1
    28    20    21    1
    29    21    22    1
    30    23    24    1
    31    23    88    1
    32    23    89    1
    33    24    25    1
    34    24    26    1
    35    24    90    1
    36    25    91    1
    37    25    92    1
    38    25    93    1
    39    26    94    1
    40    26    95    1
    41    26    96    1
    42    27    28   ar
    43    28    29   ar
    44    29    30   ar
    45    29    31    1
    46    30    33    1
    47    31    32    1
    48    32    33    1
    49    32    35    1
    50    34    97    1
    51    34    98    1
    52    34    99    1
    53    35    61    1
    54    36    37    1
    55    36    60    1
    56    37    38    1
    57    38    39    1
    58    39    40    1
    59    40    41    1
    60    41    42    1
    61    45   100    1
    62    47   101    1
    63    47   102    1
    64    47   103    1
    65    48   104    1
    66    49   105    1
    67    49   106    1
    68    49   107    1
    69    50   108    1
    70    51    59    1
    71    52   109    1
    72    52   110    1
    73    52   111    1
    74    53    54    1
    75    54    55    2
    76    54    56    1
    77    56   112    1
    78    56   113    1
    79    56   114    1
    80    57   115    1
    81    57   116    1
    82    57   117    1
    83    58   118    1
    84    58   119    1
    85    58   120    1
    86    59   121    1
    87    59   122    1
    88    59   123    1
    89    60    61    2
    90     1    47    1
    91     1    62    1
    92     2    63    1
    93     3    64    1
    94     4    65    1
    95     5     6    1
    96     7     8    2
    97     9    78    1
    98    15    79    1
    99    18    80    1
   100    18    81    1
   101    19    82    1
   102    19    83    1
   103    20    23    1
   104    21    84    1
   105    21    85    1
   106    22    86    1
   107    22    87    1
   108    27    45    1
   109    28    34    1
   110    32    58    1
   111    33    46    2
   112    36    51    1
   113    36    66    1
   114    37    52    1
   115    37    67    1
   116    38    53    1
   117    38    68    1
   118    42    48    1
   119    42    72    1
   120    43    44    2
   121    60    73    1
   122    61    74    1
   123    39    69    1
   124    39    57    1
   125    40    70    1
   126    40    50    1
   127    41    71    1
   128    41    49    1
