@<TRIPOS>MOLECULE
*****
 123 128 0 0 0
SMALL
GASTEIGER

@<TRIPOS>ATOM
     1 C         1.570418   -2.192245   -4.257692 C.3        1 UNL1     0.0009
     2 C         3.171384   -2.845126   -4.926791 C.2        1 UNL1     -0.0787
     3 C         4.244442   -2.786307   -5.896911 C.2        1 UNL1     -0.0649
     4 C         5.672213   -3.695701   -5.925702 C.2        1 UNL1     -0.0542
     5 C         6.994382   -3.765423   -6.429773 C.2        1 UNL1     0.0115
     6 C         7.990086   -3.128547   -7.437882 C.3        1 UNL1     -0.0348
     7 C         8.046675   -4.746303   -5.717352 C.2        1 UNL1     0.2441
     8 O         8.362008   -5.833642   -6.180801 O.2        1 UNL1     -0.2702
     9 N         8.77622   -4.164088   -4.66619 N.am        1 UNL1     -0.2772
     10 C         8.095526   -4.297259   -3.477812 C.2        1 UNL1     0.1049
     11 C         7.159155   -3.396944   -3.239349 C.2        1 UNL1     0.0801
     12 C         6.903485   -5.971161   -2.051479 C.ar        1 UNL1     0.0753
     13 C         5.820836   -5.036576   -1.996429 C.ar        1 UNL1     0.0305
     14 C         5.968201   -3.665576   -2.479847 C.2        1 UNL1     0.0924
     15 N         6.893762   -2.239199   -3.868412 N.pl3        1 UNL1     -0.3170
     16 C         5.883563   -1.549142   -3.111065 C.3        1 UNL1     0.1275
     17 N         5.114641   -2.647464   -2.418122 N.2        1 UNL1     -0.2557
     18 C         6.59685   -0.771429   -2.00921 C.3        1 UNL1     0.0016
     19 C         7.633073   0.138759   -2.649047 C.3        1 UNL1     0.0026
     20 N         6.95775   1.039401   -3.573066 N.3        1 UNL1     -0.3018
     21 C         6.192142   0.381991   -4.634209 C.3        1 UNL1     0.0026
     22 C         5.154262   -0.523635   -3.968971 C.3        1 UNL1     0.0016
     23 C         7.799266   2.136544   -4.007542 C.3        1 UNL1     0.0012
     24 C         7.079178   3.479442   -3.807904 C.3        1 UNL1     -0.0339
     25 C         7.093761   4.322011   -5.093953 C.3        1 UNL1     -0.0615
     26 C         5.663693   3.242516   -3.310863 C.3        1 UNL1     -0.0615
     27 C         6.794247   -7.236706   -1.480006 C.ar        1 UNL1     0.1347
     28 C         5.671105   -7.664852   -0.794955 C.ar        1 UNL1     0.0342
     29 C         4.600012   -6.7462   -0.79584 C.ar        1 UNL1     0.1435
     30 C         4.68209   -5.488809   -1.395381 C.ar        1 UNL1     0.0774
     31 O         3.478048   -6.971133   -0.07778 O.3        1 UNL1     -0.4436
     32 C         2.86964   -5.678066   0.058926 C.3        1 UNL1     0.3143
     33 C         3.412042   -4.86093   -1.096195 C.2        1 UNL1     0.2504
     34 C         5.574457   -8.901623   0.054255 C.3        1 UNL1     -0.0327
     35 O         1.464599   -5.842084   -0.169573 O.2        1 UNL1     -0.4528
     36 C         -0.247507   -3.172381   1.915965 C.3        1 UNL1     0.0854
     37 C         -0.054585   -1.607357   1.884304 C.3        1 UNL1     0.0236
     38 C         -1.39971   -0.765091   1.654147 C.3        1 UNL1     0.1131
     39 C         -2.359183   -1.131282   0.450991 C.3        1 UNL1     0.0200
     40 C         -1.731845   -1.469562   -1.057137 C.3        1 UNL1     0.0661
     41 C         -0.603176   -0.523432   -1.898894 C.3        1 UNL1     0.0091
     42 C         0.723361   -1.01236   -3.067933 C.3        1 UNL1     0.0661
     43 C         8.178563   -5.515935   -2.659102 C.2        1 UNL1     0.2131
     44 O         9.256429   -6.033539   -2.428823 O.2        1 UNL1     -0.2851
     45 O         7.877397   -8.102325   -1.617579 O.3        1 UNL1     -0.5056
     46 O         2.900796   -3.917961   -1.657701 O.2        1 UNL1     -0.2836
     47 C         0.389787   -2.621193   -5.169885 C.3        1 UNL1     -0.0566
     48 O         0.367885   0.013222   -4.078346 O.3        1 UNL1     -0.3909
     49 C         -0.000774   0.482687   -0.943733 C.3        1 UNL1     -0.0577
     50 O         -1.390431   -2.837047   -1.162693 O.3        1 UNL1     -0.3910
     51 O         -1.530379   -3.642114   1.568082 O.3        1 UNL1     -0.3753
     52 C         1.303387   -1.201774   1.223726 C.3        1 UNL1     -0.0564
     53 O         -1.256777   0.694143   1.974351 O.3        1 UNL1     -0.4608
     54 C         -1.157989   1.704268   1.05358 C.2        1 UNL1     0.3042
     55 O         -1.908342   2.670357   0.921362 O.2        1 UNL1     -0.2512
     56 C         0.052002   1.596258   0.169856 C.3        1 UNL1     0.0332
     57 C         -3.497109   -2.100887   1.019468 C.3        1 UNL1     -0.0567
     58 C         3.40052   -5.082728   1.383791 C.3        1 UNL1     0.0210
     59 C         -2.382799   -2.668189   0.967486 C.3        1 UNL1     0.0372
     60 C         0.7282   -3.942937   1.097796 C.2        1 UNL1     -0.0208
     61 C         0.53867   -4.963673   0.260586 C.2        1 UNL1     0.0882
     62 H         1.627668   -2.932899   -3.450929 H        1 UNL1     0.0365
     63 H         3.326935   -3.708385   -4.276363 H        1 UNL1     0.0576
     64 H         4.297296   -1.991712   -6.644528 H        1 UNL1     0.0615
     65 H         5.483957   -4.49915   -5.208406 H        1 UNL1     0.0622
     66 H         -0.053079   -3.453379   2.96061 H        1 UNL1     0.0645
     67 H         0.191829   -1.346443   2.928222 H        1 UNL1     0.0362
     68 H         -1.951474   -1.047499   2.563721 H        1 UNL1     0.0741
     69 H         -3.008022   -0.288245   0.254256 H        1 UNL1     0.0359
     70 H         -2.64619   -1.364495   -1.671951 H        1 UNL1     0.0600
     71 H         -1.288752   0.118405   -2.48625 H        1 UNL1     0.0348
     72 H         0.023264   -1.859648   -3.032113 H        1 UNL1     0.0602
     73 H         1.713775   -3.646675   1.358793 H        1 UNL1     0.0628
     74 H         -0.43637   -5.29114   -0.101767 H        1 UNL1     0.1022
     75 H         7.757902   -3.457874   -8.479356 H        1 UNL1     0.0279
     76 H         7.966274   -2.044546   -7.524167 H        1 UNL1     0.0279
     77 H         9.016891   -3.503345   -7.315823 H        1 UNL1     0.0279
     78 H         8.893882   -3.168419   -4.841907 H        1 UNL1     0.1553
     79 H         7.550381   -1.76313   -4.459295 H        1 UNL1     0.1484
     80 H         5.856024   -0.196962   -1.440062 H        1 UNL1     0.0317
     81 H         7.078757   -1.451939   -1.299053 H        1 UNL1     0.0317
     82 H         8.419596   -0.43583   -3.160067 H        1 UNL1     0.0428
     83 H         8.130982   0.682483   -1.845616 H        1 UNL1     0.0428
     84 H         5.630658   1.077749   -5.265453 H        1 UNL1     0.0428
     85 H         6.845065   -0.15061   -5.339435 H        1 UNL1     0.0428
     86 H         4.529837   -0.882555   -4.766002 H        1 UNL1     0.0317
     87 H         4.467999   0.077336   -3.359895 H        1 UNL1     0.0317
     88 H         8.709124   2.133143   -3.39318 H        1 UNL1     0.0429
     89 H         8.11517   2.007874   -5.050817 H        1 UNL1     0.0429
     90 H         7.584525   4.043606   -3.015088 H        1 UNL1     0.0308
     91 H         6.420482   3.906189   -5.849525 H        1 UNL1     0.0233
     92 H         6.80277   5.353751   -4.883133 H        1 UNL1     0.0233
     93 H         8.090369   4.372276   -5.549015 H        1 UNL1     0.0233
     94 H         5.306976   2.260744   -3.640579 H        1 UNL1     0.0233
     95 H         5.643997   3.258621   -2.217559 H        1 UNL1     0.0233
     96 H         4.975689   4.00456   -3.687569 H        1 UNL1     0.0233
     97 H         5.299898   -8.67155   1.079397 H        1 UNL1     0.0280
     98 H         4.808543   -9.597073   -0.313143 H        1 UNL1     0.0280
     99 H         6.547798   -9.418911   0.064987 H        1 UNL1     0.0280
     100 H         8.635572   -7.719439   -2.022785 H        1 UNL1     0.2922
     101 H         -0.465124   -1.968022   -4.996245 H        1 UNL1     0.0236
     102 H         0.128158   -3.67367   -5.065839 H        1 UNL1     0.0236
     103 H         0.625863   -2.494741   -6.239684 H        1 UNL1     0.0236
     104 H         1.053265   0.709055   -4.046083 H        1 UNL1     0.2098
     105 H         1.023728   0.763582   -1.174611 H        1 UNL1     0.0234
     106 H         -0.607935   1.37231   -0.776841 H        1 UNL1     0.0234
     107 H         0.0   0.0   0.0 H        1 UNL1     0.0234
     108 H         -2.172249   -3.353354   -0.887089 H        1 UNL1     0.2098
     109 H         1.728815   -2.012486   0.615887 H        1 UNL1     0.0234
     110 H         1.233408   -0.289887   0.620975 H        1 UNL1     0.0234
     111 H         2.065441   -0.964481   1.977989 H        1 UNL1     0.0234
     112 H         -0.194234   1.934452   -0.841251 H        1 UNL1     0.0342
     113 H         0.901864   2.14715   0.569978 H        1 UNL1     0.0342
     114 H         0.33984   0.537605   0.110125 H        1 UNL1     0.0342
     115 H         -4.483361   -1.616641   1.02027 H        1 UNL1     0.0234
     116 H         -3.593312   -3.040939   0.472571 H        1 UNL1     0.0234
     117 H         -3.376485   -2.340484   2.089975 H        1 UNL1     0.0234
     118 H         3.243794   -3.991272   1.44008 H        1 UNL1     0.0309
     119 H         2.965286   -5.553278   2.271122 H        1 UNL1     0.0309
     120 H         4.486124   -5.187627   1.48658 H        1 UNL1     0.0309
     121 H         -2.167624   -2.655537   -0.100642 H        1 UNL1     0.0524
     122 H         -3.450656   -2.915521   1.088095 H        1 UNL1     0.0524
     123 H         -2.19683   -1.688722   1.398939 H        1 UNL1     0.0524
@<TRIPOS>BOND
     1     1     2    1
     2     1    42    1
     3     2     3    2
     4     3     4    1
     5     4     5    2
     6     5     7    1
     7     6    75    1
     8     6    76    1
     9     6    77    1
    10     7     9   am
    11     9    10    1
    12    10    11    2
    13    10    43    1
    14    11    14    1
    15    11    15    1
    16    12    13   ar
    17    12    27   ar
    18    12    43    1
    19    13    14    1
    20    13    30   ar
    21    14    17    2
    22    15    16    1
    23    16    17    1
    24    16    18    1
    25    16    22    1
    26    18    19    1
    27    19    20    1
    28    20    21    1
    29    21    22    1
    30    23    24    1
    31    23    88    1
    32    23    89    1
    33    24    25    1
    34    24    26    1
    35    24    90    1
    36    25    91    1
    37    25    92    1
    38    25    93    1
    39    26    94    1
    40    26    95    1
    41    26    96    1
    42    27    28   ar
    43    28    29   ar
    44    29    30   ar
    45    29    31    1
    46    30    33    1
    47    31    32    1
    48    32    33    1
    49    32    35    1
    50    34    97    1
    51    34    98    1
    52    34    99    1
    53    35    61    1
    54    36    37    1
    55    36    60    1
    56    37    38    1
    57    38    39    1
    58    39    40    1
    59    40    41    1
    60    41    42    1
    61    45   100    1
    62    47   101    1
    63    47   102    1
    64    47   103    1
    65    48   104    1
    66    49   105    1
    67    49   106    1
    68    49   107    1
    69    50   108    1
    70    51    59    1
    71    52   109    1
    72    52   110    1
    73    52   111    1
    74    53    54    1
    75    54    55    2
    76    54    56    1
    77    56   112    1
    78    56   113    1
    79    56   114    1
    80    57   115    1
    81    57   116    1
    82    57   117    1
    83    58   118    1
    84    58   119    1
    85    58   120    1
    86    59   121    1
    87    59   122    1
    88    59   123    1
    89    60    61    2
    90     1    47    1
    91     1    62    1
    92     2    63    1
    93     3    64    1
    94     4    65    1
    95     5     6    1
    96     7     8    2
    97     9    78    1
    98    15    79    1
    99    18    80    1
   100    18    81    1
   101    19    82    1
   102    19    83    1
   103    20    23    1
   104    21    84    1
   105    21    85    1
   106    22    86    1
   107    22    87    1
   108    27    45    1
   109    28    34    1
   110    32    58    1
   111    33    46    2
   112    36    51    1
   113    36    66    1
   114    37    52    1
   115    37    67    1
   116    38    53    1
   117    38    68    1
   118    42    48    1
   119    42    72    1
   120    43    44    2
   121    60    73    1
   122    61    74    1
   123    39    69    1
   124    39    57    1
   125    40    70    1
   126    40    50    1
   127    41    71    1
   128    41    49    1
