@<TRIPOS>MOLECULE
*****
 123 128 0 0 0
SMALL
GASTEIGER

@<TRIPOS>ATOM
     1 C         2.340747   -3.363054   -3.502852 C.3        1 UNL1     0.0009
     2 C         2.218474   -4.184572   -5.160318 C.2        1 UNL1     -0.0787
     3 C         1.8099   -5.306568   -5.978999 C.2        1 UNL1     -0.0649
     4 C         1.875532   -5.442774   -7.665267 C.2        1 UNL1     -0.0542
     5 C         1.367601   -6.130008   -8.795219 C.2        1 UNL1     0.0115
     6 C         0.51414   -7.346914   -9.246959 C.3        1 UNL1     -0.0348
     7 C         1.546659   -5.473362   -10.249091 C.2        1 UNL1     0.2441
     8 O         2.395755   -5.845433   -11.047292 O.2        1 UNL1     -0.2702
     9 N         0.499376   -4.622983   -10.644318 N.am        1 UNL1     -0.2772
     10 C         0.736155   -3.337613   -10.214108 C.2        1 UNL1     0.1049
     11 C         0.395611   -3.069355   -8.966594 C.2        1 UNL1     0.0801
     12 C         2.491222   -1.556038   -10.158769 C.ar        1 UNL1     0.0753
     13 C         2.227639   -1.449584   -8.755986 C.ar        1 UNL1     0.0305
     14 C         1.078955   -2.110863   -8.140936 C.2        1 UNL1     0.0924
     15 N         -0.340333   -3.785137   -8.099087 N.pl3        1 UNL1     -0.3170
     16 C         -0.559701   -2.971357   -6.932942 C.3        1 UNL1     0.1275
     17 N         0.62926   -2.042731   -6.891112 N.2        1 UNL1     -0.2557
     18 C         -1.773875   -2.092246   -7.216924 C.3        1 UNL1     0.0016
     19 C         -2.94597   -2.986837   -7.587725 C.3        1 UNL1     0.0026
     20 N         -3.206369   -3.89877   -6.482465 N.3        1 UNL1     -0.3018
     21 C         -2.075548   -4.744428   -6.094556 C.3        1 UNL1     0.0026
     22 C         -0.911095   -3.825213   -5.721745 C.3        1 UNL1     0.0016
     23 C         -4.477254   -4.584727   -6.604774 C.3        1 UNL1     0.0012
     24 C         -5.641167   -3.605507   -6.385252 C.3        1 UNL1     -0.0339
     25 C         -5.212631   -2.4069   -5.52284 C.3        1 UNL1     -0.0615
     26 C         -6.205058   -3.158582   -7.722811 C.3        1 UNL1     -0.0615
     27 C         3.515545   -0.826832   -10.758052 C.ar        1 UNL1     0.1347
     28 C         4.313892   0.067458   -10.067446 C.ar        1 UNL1     0.0342
     29 C         4.068192   0.119193   -8.678878 C.ar        1 UNL1     0.1435
     30 C         3.069387   -0.632439   -8.05867 C.ar        1 UNL1     0.0774
     31 O         4.687624   1.021288   -7.886708 O.3        1 UNL1     -0.4436
     32 C         3.869097   1.092682   -6.709512 C.3        1 UNL1     0.3143
     33 C         3.115053   -0.221149   -6.671038 C.2        1 UNL1     0.2504
     34 C         5.257274   1.063767   -10.681855 C.3        1 UNL1     -0.0327
     35 O         4.749121   1.101898   -5.578705 O.2        1 UNL1     -0.4528
     36 C         2.959818   3.08776   -2.883741 C.3        1 UNL1     0.0854
     37 C         1.542128   2.839452   -2.238743 C.3        1 UNL1     0.0236
     38 C         1.539149   2.717108   -0.639753 C.3        1 UNL1     0.1131
     39 C         2.545202   1.726649   0.073771 C.3        1 UNL1     0.0200
     40 C         2.792717   0.192308   -0.532012 C.3        1 UNL1     0.0661
     41 C         1.580655   -0.91875   -0.949223 C.3        1 UNL1     0.0091
     42 C         1.546447   -2.208681   -2.253183 C.3        1 UNL1     0.0661
     43 C         1.580247   -2.400727   -10.970485 C.2        1 UNL1     0.2131
     44 O         1.44091   -2.276597   -12.173778 O.2        1 UNL1     -0.2851
     45 O         3.735322   -1.022602   -12.119966 O.3        1 UNL1     -0.5056
     46 O         2.671451   -0.807477   -5.709118 O.2        1 UNL1     -0.2836
     47 C         3.457478   -4.026895   -2.653023 C.3        1 UNL1     -0.0566
     48 O         1.036467   -3.269017   -1.350563 O.3        1 UNL1     -0.3909
     49 C         0.254519   -0.194113   -1.010524 C.3        1 UNL1     -0.0577
     50 O         3.801658   0.201017   -1.521803 O.3        1 UNL1     -0.3910
     51 O         4.059913   2.997981   -2.006722 O.3        1 UNL1     -0.3753
     52 C         0.641569   1.936164   -3.143184 C.3        1 UNL1     -0.0564
     53 O         0.172391   2.834301   -0.031014 O.3        1 UNL1     -0.4608
     54 C         -0.330619   3.950269   0.585043 C.2        1 UNL1     0.3042
     55 O         -0.442587   4.149536   1.794007 O.2        1 UNL1     -0.2512
     56 C         -0.7217   5.040556   -0.371536 C.3        1 UNL1     0.0332
     57 C         3.831242   2.573834   0.505686 C.3        1 UNL1     -0.0567
     58 C         2.86006   2.240216   -6.947292 C.3        1 UNL1     0.0210
     59 C         3.73658   3.134301   -0.623704 C.3        1 UNL1     0.0372
     60 C         3.275642   2.229222   -4.057763 C.2        1 UNL1     -0.0208
     61 C         4.387262   1.559261   -4.364677 C.2        1 UNL1     0.0882
     62 H         2.794409   -2.491361   -3.989734 H        1 UNL1     0.0365
     63 H         2.755475   -3.466481   -5.783572 H        1 UNL1     0.0576
     64 H         1.244964   -6.143459   -5.562384 H        1 UNL1     0.0615
     65 H         2.520881   -4.613975   -7.968745 H        1 UNL1     0.0622
     66 H         2.912272   4.116774   -3.267036 H        1 UNL1     0.0645
     67 H         1.009213   3.794781   -2.386757 H        1 UNL1     0.0362
     68 H         1.888768   3.727268   -0.377329 H        1 UNL1     0.0741
     69 H         2.188843   1.531103   1.076357 H        1 UNL1     0.0359
     70 H         3.270124   -0.284406   0.345419 H        1 UNL1     0.0600
     71 H         1.483933   -1.467769   0.00795 H        1 UNL1     0.0348
     72 H         2.607158   -1.965332   -2.095105 H        1 UNL1     0.0602
     73 H         2.486422   2.299806   -4.764444 H        1 UNL1     0.0628
     74 H         5.216047   1.391387   -3.676076 H        1 UNL1     0.1022
     75 H         0.825754   -8.269076   -8.699649 H        1 UNL1     0.0279
     76 H         -0.551546   -7.297524   -9.03496 H        1 UNL1     0.0279
     77 H         0.707245   -7.638092   -10.289853 H        1 UNL1     0.0279
     78 H         -0.371875   -4.932811   -10.218869 H        1 UNL1     0.1553
     79 H         -0.964091   -4.521846   -8.373168 H        1 UNL1     0.1484
     80 H         -1.995264   -1.490187   -6.327386 H        1 UNL1     0.0317
     81 H         -1.565172   -1.387135   -8.028658 H        1 UNL1     0.0317
     82 H         -2.757751   -3.538805   -8.520364 H        1 UNL1     0.0428
     83 H         -3.800442   -2.339643   -7.787895 H        1 UNL1     0.0428
     84 H         -2.271845   -5.36185   -5.212473 H        1 UNL1     0.0428
     85 H         -1.821273   -5.471643   -6.878022 H        1 UNL1     0.0428
     86 H         -0.15153   -4.469075   -5.318642 H        1 UNL1     0.0317
     87 H         -1.189355   -3.195464   -4.867881 H        1 UNL1     0.0317
     88 H         -4.549525   -4.991058   -7.622106 H        1 UNL1     0.0429
     89 H         -4.53952   -5.43514   -5.91362 H        1 UNL1     0.0429
     90 H         -6.458918   -4.128168   -5.875034 H        1 UNL1     0.0308
     91 H         -5.447064   -1.458473   -6.015415 H        1 UNL1     0.0233
     92 H         -5.705572   -2.436331   -4.548288 H        1 UNL1     0.0233
     93 H         -4.134766   -2.402274   -5.320304 H        1 UNL1     0.0233
     94 H         -7.280578   -3.361602   -7.766109 H        1 UNL1     0.0233
     95 H         -6.059884   -2.081977   -7.848549 H        1 UNL1     0.0233
     96 H         -5.721337   -3.679434   -8.553892 H        1 UNL1     0.0233
     97 H         5.1456   1.119079   -11.760604 H        1 UNL1     0.0280
     98 H         5.084259   2.081835   -10.309216 H        1 UNL1     0.0280
     99 H         6.296981   0.775173   -10.456426 H        1 UNL1     0.0280
     100 H         3.794889   -1.924717   -12.381239 H        1 UNL1     0.2922
     101 H         4.333608   -3.379308   -2.626831 H        1 UNL1     0.0236
     102 H         3.704243   -5.035694   -2.982285 H        1 UNL1     0.0236
     103 H         3.161772   -4.140515   -1.59669 H        1 UNL1     0.0236
     104 H         1.696415   -3.394837   -0.640909 H        1 UNL1     0.2098
     105 H         0.286767   0.757958   -1.534292 H        1 UNL1     0.0234
     106 H         -0.57754   -0.797135   -1.3738 H        1 UNL1     0.0234
     107 H         -0.0   0.0   0.0 H        1 UNL1     0.0234
     108 H         4.497192   -0.420535   -1.232537 H        1 UNL1     0.2098
     109 H         0.999275   0.897754   -3.181422 H        1 UNL1     0.0234
     110 H         -0.4137   1.949633   -2.849979 H        1 UNL1     0.0234
     111 H         0.633142   2.286155   -4.18404 H        1 UNL1     0.0234
     112 H         -1.094067   5.906852   0.18364 H        1 UNL1     0.0342
     113 H         0.098971   5.321663   -1.029807 H        1 UNL1     0.0342
     114 H         -1.540658   4.666849   -1.001468 H        1 UNL1     0.0342
     115 H         4.193068   3.21244   -0.311904 H        1 UNL1     0.0234
     116 H         3.669675   3.213851   1.375355 H        1 UNL1     0.0234
     117 H         4.722127   1.952434   0.700952 H        1 UNL1     0.0234
     118 H         1.89237   1.869166   -7.327956 H        1 UNL1     0.0309
     119 H         2.684112   2.849375   -6.055009 H        1 UNL1     0.0309
     120 H         3.18927   2.934352   -7.728254 H        1 UNL1     0.0309
     121 H         4.624418   3.505614   -0.1126 H        1 UNL1     0.0524
     122 H         2.926403   3.862731   -0.453289 H        1 UNL1     0.0524
     123 H         3.44023   2.174291   -0.210604 H        1 UNL1     0.0524
@<TRIPOS>BOND
     1     1     2    1
     2     1    42    1
     3     2     3    2
     4     3     4    1
     5     4     5    2
     6     5     7    1
     7     6    75    1
     8     6    76    1
     9     6    77    1
    10     7     9   am
    11     9    10    1
    12    10    11    2
    13    10    43    1
    14    11    14    1
    15    11    15    1
    16    12    13   ar
    17    12    27   ar
    18    12    43    1
    19    13    14    1
    20    13    30   ar
    21    14    17    2
    22    15    16    1
    23    16    17    1
    24    16    18    1
    25    16    22    1
    26    18    19    1
    27    19    20    1
    28    20    21    1
    29    21    22    1
    30    23    24    1
    31    23    88    1
    32    23    89    1
    33    24    25    1
    34    24    26    1
    35    24    90    1
    36    25    91    1
    37    25    92    1
    38    25    93    1
    39    26    94    1
    40    26    95    1
    41    26    96    1
    42    27    28   ar
    43    28    29   ar
    44    29    30   ar
    45    29    31    1
    46    30    33    1
    47    31    32    1
    48    32    33    1
    49    32    35    1
    50    34    97    1
    51    34    98    1
    52    34    99    1
    53    35    61    1
    54    36    37    1
    55    36    60    1
    56    37    38    1
    57    38    39    1
    58    39    40    1
    59    40    41    1
    60    41    42    1
    61    45   100    1
    62    47   101    1
    63    47   102    1
    64    47   103    1
    65    48   104    1
    66    49   105    1
    67    49   106    1
    68    49   107    1
    69    50   108    1
    70    51    59    1
    71    52   109    1
    72    52   110    1
    73    52   111    1
    74    53    54    1
    75    54    55    2
    76    54    56    1
    77    56   112    1
    78    56   113    1
    79    56   114    1
    80    57   115    1
    81    57   116    1
    82    57   117    1
    83    58   118    1
    84    58   119    1
    85    58   120    1
    86    59   121    1
    87    59   122    1
    88    59   123    1
    89    60    61    2
    90     1    47    1
    91     1    62    1
    92     2    63    1
    93     3    64    1
    94     4    65    1
    95     5     6    1
    96     7     8    2
    97     9    78    1
    98    15    79    1
    99    18    80    1
   100    18    81    1
   101    19    82    1
   102    19    83    1
   103    20    23    1
   104    21    84    1
   105    21    85    1
   106    22    86    1
   107    22    87    1
   108    27    45    1
   109    28    34    1
   110    32    58    1
   111    33    46    2
   112    36    51    1
   113    36    66    1
   114    37    52    1
   115    37    67    1
   116    38    53    1
   117    38    68    1
   118    42    48    1
   119    42    72    1
   120    43    44    2
   121    60    73    1
   122    61    74    1
   123    39    69    1
   124    39    57    1
   125    40    70    1
   126    40    50    1
   127    41    71    1
   128    41    49    1
