@<TRIPOS>MOLECULE
*****
 123 128 0 0 0
SMALL
GASTEIGER

@<TRIPOS>ATOM
     1 C         1.497313   -2.738239   -4.336443 C.3        1 UNL1     0.0009
     2 C         2.021857   -4.38944   -4.996311 C.2        1 UNL1     -0.0787
     3 C         3.064717   -5.345053   -5.305009 C.2        1 UNL1     -0.0649
     4 C         2.88835   -6.934223   -5.861596 C.2        1 UNL1     -0.0542
     5 C         3.519385   -8.196088   -5.990322 C.2        1 UNL1     0.0115
     6 C         4.873889   -8.9438   -5.850429 C.3        1 UNL1     -0.0348
     7 C         2.614189   -9.492802   -6.266258 C.2        1 UNL1     0.2441
     8 O         2.509189   -10.008257   -7.370706 O.2        1 UNL1     -0.2702
     9 N         2.159417   -10.150508   -5.110075 N.am        1 UNL1     -0.2772
     10 C         0.967031   -9.609335   -4.687379 C.2        1 UNL1     0.1049
     11 C         1.052431   -8.515501   -3.952223 C.2        1 UNL1     0.0801
     12 C         -1.302534   -8.935611   -5.495155 C.ar        1 UNL1     0.0753
     13 C         -1.072198   -7.678052   -4.85165 C.ar        1 UNL1     0.0305
     14 C         0.05852   -7.476509   -3.948374 C.2        1 UNL1     0.0924
     15 N         2.121633   -7.949832   -3.366259 N.pl3        1 UNL1     -0.3170
     16 C         1.650019   -6.870891   -2.539385 C.3        1 UNL1     0.1275
     17 N         0.367691   -6.423245   -3.197392 N.2        1 UNL1     -0.2557
     18 C         1.248995   -7.472728   -1.196004 C.3        1 UNL1     0.0016
     19 C         2.439993   -8.226347   -0.625766 C.3        1 UNL1     0.0026
     20 N         3.551538   -7.297819   -0.473028 N.3        1 UNL1     -0.3018
     21 C         3.969874   -6.621215   -1.702488 C.3        1 UNL1     0.0026
     22 C         2.759518   -5.866888   -2.255591 C.3        1 UNL1     0.0016
     23 C         4.629094   -7.835868   0.33321 C.3        1 UNL1     0.0012
     24 C         4.08217   -8.408491   1.650303 C.3        1 UNL1     -0.0339
     25 C         5.20548   -9.00757   2.512472 C.3        1 UNL1     -0.0615
     26 C         3.310265   -7.338467   2.402627 C.3        1 UNL1     -0.0615
     27 C         -2.446748   -9.157183   -6.257913 C.ar        1 UNL1     0.1347
     28 C         -3.446674   -8.214257   -6.416304 C.ar        1 UNL1     0.0342
     29 C         -3.175255   -6.967258   -5.814233 C.ar        1 UNL1     0.1435
     30 C         -2.016548   -6.719003   -5.077356 C.ar        1 UNL1     0.0774
     31 O         -4.099436   -5.982327   -5.785848 O.3        1 UNL1     -0.4436
     32 C         -3.668645   -5.111139   -4.729286 C.3        1 UNL1     0.3143
     33 C         -2.181897   -5.366824   -4.586399 C.2        1 UNL1     0.2504
     34 C         -4.807644   -8.462673   -7.004649 C.3        1 UNL1     -0.0327
     35 O         -3.817297   -3.765684   -5.199293 O.2        1 UNL1     -0.4528
     36 C         -4.528769   -1.660895   -2.12167 C.3        1 UNL1     0.0854
     37 C         -3.671183   -1.494305   -0.808537 C.3        1 UNL1     0.0236
     38 C         -3.29591   0.019147   -0.433867 C.3        1 UNL1     0.1131
     39 C         -2.645575   0.960291   -1.526379 C.3        1 UNL1     0.0200
     40 C         -1.43359   0.3893   -2.520109 C.3        1 UNL1     0.0661
     41 C         -0.037477   -0.43073   -2.014117 C.3        1 UNL1     0.0091
     42 C         0.940769   -1.740555   -2.846461 C.3        1 UNL1     0.0661
     43 C         -0.326142   -10.025932   -5.249966 C.2        1 UNL1     0.2131
     44 O         -0.585462   -11.206817   -5.394883 O.2        1 UNL1     -0.2851
     45 O         -2.572497   -10.393472   -6.888163 O.3        1 UNL1     -0.5056
     46 O         -1.323783   -4.615694   -4.179829 O.2        1 UNL1     -0.2836
     47 C         1.830388   -1.618427   -5.358727 C.3        1 UNL1     -0.0566
     48 O         2.247148   -1.088124   -2.587957 O.3        1 UNL1     -0.3909
     49 C         -0.219284   -0.862397   -0.576026 C.3        1 UNL1     -0.0577
     50 O         -1.97736   -0.241592   -3.662043 O.3        1 UNL1     -0.3910
     51 O         -4.709987   -0.493748   -2.891318 O.3        1 UNL1     -0.3753
     52 C         -2.660275   -2.67229   -0.620479 C.3        1 UNL1     -0.0564
     53 O         -2.79733   0.183831   0.972057 O.3        1 UNL1     -0.4608
     54 C         -2.832079   1.346246   1.696981 C.2        1 UNL1     0.3042
     55 O         -3.579066   1.618872   2.635875 O.2        1 UNL1     -0.2512
     56 C         -1.781292   2.33999   1.290739 C.3        1 UNL1     0.0332
     57 C         -3.825377   1.804779   -2.199493 C.3        1 UNL1     -0.0567
     58 C         -4.383459   -5.593669   -3.445645 C.3        1 UNL1     0.0210
     59 C         -5.215103   0.628211   -2.168871 C.3        1 UNL1     0.0372
     60 C         -4.053223   -2.719798   -3.053197 C.2        1 UNL1     -0.0208
     61 C         -3.902414   -2.701462   -4.378212 C.2        1 UNL1     0.0882
     62 H         0.45247   -3.021482   -4.511909 H        1 UNL1     0.0365
     63 H         1.064248   -4.783861   -5.342557 H        1 UNL1     0.0576
     64 H         4.107397   -5.161143   -5.036489 H        1 UNL1     0.0615
     65 H         1.841865   -6.986281   -6.174072 H        1 UNL1     0.0622
     66 H         -5.514958   -1.992188   -1.767098 H        1 UNL1     0.0645
     67 H         -4.37175   -1.754295   0.003972 H        1 UNL1     0.0362
     68 H         -4.305937   0.422697   -0.265005 H        1 UNL1     0.0741
     69 H         -2.170406   1.794954   -1.028423 H        1 UNL1     0.0359
     70 H         -1.030459   1.347828   -2.899281 H        1 UNL1     0.0600
     71 H         0.657352   0.424065   -1.897947 H        1 UNL1     0.0348
     72 H         0.351584   -1.253503   -3.637004 H        1 UNL1     0.0602
     73 H         -3.941574   -3.630507   -2.518977 H        1 UNL1     0.0628
     74 H         -3.942712   -1.800305   -4.991017 H        1 UNL1     0.1022
     75 H         4.703687   -10.02947   -5.651972 H        1 UNL1     0.0279
     76 H         5.510319   -8.963814   -6.73226 H        1 UNL1     0.0279
     77 H         5.434113   -8.644495   -4.952505 H        1 UNL1     0.0279
     78 H         2.834986   -10.027785   -4.358661 H        1 UNL1     0.1553
     79 H         2.981177   -8.435922   -3.187839 H        1 UNL1     0.1484
     80 H         0.926347   -6.667163   -0.525385 H        1 UNL1     0.0317
     81 H         0.393848   -8.14767   -1.309265 H        1 UNL1     0.0317
     82 H         2.722045   -9.080744   -1.258511 H        1 UNL1     0.0428
     83 H         2.131641   -8.648871   0.331022 H        1 UNL1     0.0428
     84 H         4.751787   -5.871529   -1.546302 H        1 UNL1     0.0428
     85 H         4.41219   -7.321652   -2.424334 H        1 UNL1     0.0428
     86 H         3.133241   -5.280424   -3.074358 H        1 UNL1     0.0317
     87 H         2.426749   -5.111406   -1.533367 H        1 UNL1     0.0317
     88 H         5.104387   -8.649083   -0.230769 H        1 UNL1     0.0429
     89 H         5.402432   -7.079911   0.520964 H        1 UNL1     0.0429
     90 H         3.35621   -9.198548   1.424462 H        1 UNL1     0.0308
     91 H         4.80904   -9.715921   3.246079 H        1 UNL1     0.0233
     92 H         5.943867   -9.514668   1.886976 H        1 UNL1     0.0233
     93 H         5.754475   -8.24195   3.073956 H        1 UNL1     0.0233
     94 H         2.565293   -7.801206   3.058923 H        1 UNL1     0.0233
     95 H         3.992698   -6.754407   3.026423 H        1 UNL1     0.0233
     96 H         2.793402   -6.662165   1.716014 H        1 UNL1     0.0233
     97 H         -5.559292   -8.625988   -6.238109 H        1 UNL1     0.0280
     98 H         -5.163797   -7.610454   -7.598058 H        1 UNL1     0.0280
     99 H         -4.773157   -9.355268   -7.650543 H        1 UNL1     0.0280
     100 H         -1.770341   -10.88055   -6.958344 H        1 UNL1     0.2922
     101 H         2.624635   -1.953601   -6.025424 H        1 UNL1     0.0236
     102 H         2.066813   -0.66476   -4.887977 H        1 UNL1     0.0236
     103 H         0.979386   -1.399543   -6.025119 H        1 UNL1     0.0236
     104 H         2.750184   -1.093003   -3.425752 H        1 UNL1     0.2098
     105 H         -1.228327   -1.181148   -0.326943 H        1 UNL1     0.0234
     106 H         0.506105   -1.596614   -0.225794 H        1 UNL1     0.0234
     107 H         0.0   0.0   0.0 H        1 UNL1     0.0234
     108 H         -1.240002   -0.407571   -4.280526 H        1 UNL1     0.2098
     109 H         -3.057238   -3.460575   0.034302 H        1 UNL1     0.0234
     110 H         -2.332454   -3.113513   -1.567896 H        1 UNL1     0.0234
     111 H         -1.728489   -2.334401   -0.147665 H        1 UNL1     0.0234
     112 H         -1.303322   2.017053   0.360899 H        1 UNL1     0.0342
     113 H         -2.185364   3.346502   1.193249 H        1 UNL1     0.0342
     114 H         -1.011387   2.364822   2.074189 H        1 UNL1     0.0342
     115 H         -3.461989   2.421652   -3.032923 H        1 UNL1     0.0234
     116 H         -4.648467   1.194799   -2.576978 H        1 UNL1     0.0234
     117 H         -4.250185   2.575381   -1.533421 H        1 UNL1     0.0234
     118 H         -3.744271   -6.260557   -2.840909 H        1 UNL1     0.0309
     119 H         -4.73892   -4.77121   -2.816829 H        1 UNL1     0.0309
     120 H         -5.261602   -6.212288   -3.660779 H        1 UNL1     0.0309
     121 H         -5.88142   0.248932   -1.39458 H        1 UNL1     0.0524
     122 H         -4.414796   1.198156   -1.668162 H        1 UNL1     0.0524
     123 H         -5.756251   1.292547   -2.836637 H        1 UNL1     0.0524
@<TRIPOS>BOND
     1     1     2    1
     2     1    42    1
     3     2     3    2
     4     3     4    1
     5     4     5    2
     6     5     7    1
     7     6    75    1
     8     6    76    1
     9     6    77    1
    10     7     9   am
    11     9    10    1
    12    10    11    2
    13    10    43    1
    14    11    14    1
    15    11    15    1
    16    12    13   ar
    17    12    27   ar
    18    12    43    1
    19    13    14    1
    20    13    30   ar
    21    14    17    2
    22    15    16    1
    23    16    17    1
    24    16    18    1
    25    16    22    1
    26    18    19    1
    27    19    20    1
    28    20    21    1
    29    21    22    1
    30    23    24    1
    31    23    88    1
    32    23    89    1
    33    24    25    1
    34    24    26    1
    35    24    90    1
    36    25    91    1
    37    25    92    1
    38    25    93    1
    39    26    94    1
    40    26    95    1
    41    26    96    1
    42    27    28   ar
    43    28    29   ar
    44    29    30   ar
    45    29    31    1
    46    30    33    1
    47    31    32    1
    48    32    33    1
    49    32    35    1
    50    34    97    1
    51    34    98    1
    52    34    99    1
    53    35    61    1
    54    36    37    1
    55    36    60    1
    56    37    38    1
    57    38    39    1
    58    39    40    1
    59    40    41    1
    60    41    42    1
    61    45   100    1
    62    47   101    1
    63    47   102    1
    64    47   103    1
    65    48   104    1
    66    49   105    1
    67    49   106    1
    68    49   107    1
    69    50   108    1
    70    51    59    1
    71    52   109    1
    72    52   110    1
    73    52   111    1
    74    53    54    1
    75    54    55    2
    76    54    56    1
    77    56   112    1
    78    56   113    1
    79    56   114    1
    80    57   115    1
    81    57   116    1
    82    57   117    1
    83    58   118    1
    84    58   119    1
    85    58   120    1
    86    59   121    1
    87    59   122    1
    88    59   123    1
    89    60    61    2
    90     1    47    1
    91     1    62    1
    92     2    63    1
    93     3    64    1
    94     4    65    1
    95     5     6    1
    96     7     8    2
    97     9    78    1
    98    15    79    1
    99    18    80    1
   100    18    81    1
   101    19    82    1
   102    19    83    1
   103    20    23    1
   104    21    84    1
   105    21    85    1
   106    22    86    1
   107    22    87    1
   108    27    45    1
   109    28    34    1
   110    32    58    1
   111    33    46    2
   112    36    51    1
   113    36    66    1
   114    37    52    1
   115    37    67    1
   116    38    53    1
   117    38    68    1
   118    42    48    1
   119    42    72    1
   120    43    44    2
   121    60    73    1
   122    61    74    1
   123    39    69    1
   124    39    57    1
   125    40    70    1
   126    40    50    1
   127    41    71    1
   128    41    49    1
