@<TRIPOS>MOLECULE
*****
 123 128 0 0 0
SMALL
GASTEIGER

@<TRIPOS>ATOM
     1 C         -0.468316   3.636847   2.127212 C.3        1 UNL1     0.0009
     2 C         -1.769348   4.933839   1.877886 C.2        1 UNL1     -0.0787
     3 C         -2.166143   6.236941   1.387451 C.2        1 UNL1     -0.0649
     4 C         -3.722263   6.902417   1.34284 C.2        1 UNL1     -0.0542
     5 C         -4.547098   7.887416   0.745761 C.2        1 UNL1     0.0115
     6 C         -4.543677   9.143731   -0.168013 C.3        1 UNL1     -0.0348
     7 C         -6.141522   7.733404   0.851021 C.2        1 UNL1     0.2441
     8 O         -6.821814   8.377837   1.637428 O.2        1 UNL1     -0.2702
     9 N         -6.733121   7.004051   -0.195021 N.am        1 UNL1     -0.2772
     10 C         -6.74732   5.661048   0.104086 C.2        1 UNL1     0.1049
     11 C         -5.634563   4.996468   -0.149544 C.2        1 UNL1     0.0801
     12 C         -7.351708   4.03693   1.90805 C.ar        1 UNL1     0.0753
     13 C         -6.044367   3.480123   1.736483 C.ar        1 UNL1     0.0305
     14 C         -5.193085   3.858837   0.610897 C.2        1 UNL1     0.0924
     15 N         -4.547975   5.366132   -0.848974 N.pl3        1 UNL1     -0.3170
     16 C         -3.692146   4.216019   -0.971663 C.3        1 UNL1     0.1275
     17 N         -4.008847   3.378084   0.242952 N.2        1 UNL1     -0.2557
     18 C         -4.179096   3.416507   -2.176388 C.3        1 UNL1     0.0016
     19 C         -4.185484   4.32703   -3.393966 C.3        1 UNL1     0.0026
     20 N         -2.835597   4.829422   -3.609453 N.3        1 UNL1     -0.3018
     21 C         -2.256683   5.560496   -2.480401 C.3        1 UNL1     0.0026
     22 C         -2.255844   4.62565   -1.269634 C.3        1 UNL1     0.0016
     23 C         -2.668187   5.459076   -4.904117 C.3        1 UNL1     0.0012
     24 C         -3.061835   6.943055   -4.836267 C.3        1 UNL1     -0.0339
     25 C         -3.697373   7.417081   -6.153631 C.3        1 UNL1     -0.0615
     26 C         -3.982834   7.183953   -3.652836 C.3        1 UNL1     -0.0615
     27 C         -8.203367   3.583094   2.912455 C.ar        1 UNL1     0.1347
     28 C         -7.875133   2.554351   3.777326 C.ar        1 UNL1     0.0342
     29 C         -6.564732   2.054719   3.621181 C.ar        1 UNL1     0.1435
     30 C         -5.687424   2.52437   2.642928 C.ar        1 UNL1     0.0774
     31 O         -6.133736   0.97815   4.314181 O.3        1 UNL1     -0.4436
     32 C         -5.0005   0.500159   3.573793 C.3        1 UNL1     0.3143
     33 C         -4.507257   1.697872   2.787404 C.2        1 UNL1     0.2504
     34 C         -8.822053   1.848456   4.707462 C.3        1 UNL1     -0.0327
     35 O         -3.977874   0.174597   4.523264 O.2        1 UNL1     -0.4528
     36 C         -1.968253   -2.642532   2.963362 C.3        1 UNL1     0.0854
     37 C         -1.206445   -2.677075   1.58279 C.3        1 UNL1     0.0236
     38 C         0.346213   -3.067055   1.677208 C.3        1 UNL1     0.1131
     39 C         1.285812   -2.307564   2.698284 C.3        1 UNL1     0.0200
     40 C         1.188448   -0.650642   2.864324 C.3        1 UNL1     0.0661
     41 C         1.209104   0.477813   1.597923 C.3        1 UNL1     0.0091
     42 C         0.387381   2.110909   1.445701 C.3        1 UNL1     0.0661
     43 C         -7.804641   5.051754   0.924565 C.2        1 UNL1     0.2131
     44 O         -8.976069   5.308276   0.713162 O.2        1 UNL1     -0.2851
     45 O         -9.441346   4.209569   3.04041 O.3        1 UNL1     -0.5056
     46 O         -3.387417   1.928581   2.389175 O.2        1 UNL1     -0.2836
     47 C         0.490646   4.048884   3.276385 C.3        1 UNL1     -0.0566
     48 O         1.605432   2.806427   0.964322 O.3        1 UNL1     -0.3909
     49 C         0.987834   -0.250964   0.291242 C.3        1 UNL1     -0.0577
     50 O         0.197395   -0.298987   3.808716 O.3        1 UNL1     -0.3910
     51 O         -1.165531   -2.783803   4.113628 O.3        1 UNL1     -0.3753
     52 C         -1.729015   -1.576916   0.60222 C.3        1 UNL1     -0.0564
     53 O         0.954703   -3.434086   0.355333 O.3        1 UNL1     -0.4608
     54 C         2.284881   -3.67654   0.132237 C.2        1 UNL1     0.3042
     55 O         2.793423   -4.710179   -0.299985 O.2        1 UNL1     -0.2512
     56 C         3.167084   -2.493319   0.412271 C.3        1 UNL1     0.0332
     57 C         1.359344   -3.187211   4.032071 C.3        1 UNL1     -0.0567
     58 C         -5.539651   -0.558782   2.584101 C.3        1 UNL1     0.0210
     59 C         -1.834029   -3.335596   5.246986 C.3        1 UNL1     0.0372
     60 C         -2.822196   -1.443042   3.180536 C.2        1 UNL1     -0.0208
     61 C         -2.955953   -0.659561   4.251522 C.2        1 UNL1     0.0882
     62 H         -1.229897   2.98596   2.573363 H        1 UNL1     0.0365
     63 H         -2.615339   4.475496   2.394307 H        1 UNL1     0.0576
     64 H         -1.476491   6.871913   0.826829 H        1 UNL1     0.0615
     65 H         -4.306343   6.243058   1.99059 H        1 UNL1     0.0622
     66 H         -2.656362   -3.498515   2.920404 H        1 UNL1     0.0645
     67 H         -1.62366   -3.56019   1.068397 H        1 UNL1     0.0362
     68 H         0.255096   -4.090981   2.070651 H        1 UNL1     0.0741
     69 H         2.315246   -2.455943   2.40053 H        1 UNL1     0.0359
     70 H         2.146501   -0.454319   3.38264 H        1 UNL1     0.0600
     71 H         2.294904   0.690774   1.546489 H        1 UNL1     0.0348
     72 H         0.405493   1.879566   2.520628 H        1 UNL1     0.0602
     73 H         -3.473401   -1.32303   2.350609 H        1 UNL1     0.0628
     74 H         -2.292892   -0.679832   5.117073 H        1 UNL1     0.1022
     75 H         -4.176798   10.036248   0.393991 H        1 UNL1     0.0279
     76 H         -3.876667   9.117192   -1.026769 H        1 UNL1     0.0279
     77 H         -5.556326   9.46674   -0.450695 H        1 UNL1     0.0279
     78 H         -6.187365   7.122606   -1.046004 H        1 UNL1     0.1553
     79 H         -4.541019   6.121918   -1.509029 H        1 UNL1     0.1484
     80 H         -3.517561   2.554403   -2.324421 H        1 UNL1     0.0317
     81 H         -5.182642   3.01484   -1.999727 H        1 UNL1     0.0317
     82 H         -4.902081   5.153765   -3.280347 H        1 UNL1     0.0428
     83 H         -4.53756   3.737451   -4.241014 H        1 UNL1     0.0428
     84 H         -1.215106   5.8574   -2.637811 H        1 UNL1     0.0428
     85 H         -2.77963   6.509164   -2.296357 H        1 UNL1     0.0428
     86 H         -1.707909   5.143479   -0.504383 H        1 UNL1     0.0317
     87 H         -1.633999   3.745953   -1.475882 H        1 UNL1     0.0317
     88 H         -1.6084   5.391   -5.182528 H        1 UNL1     0.0429
     89 H         -3.23901   4.933061   -5.68016 H        1 UNL1     0.0429
     90 H         -2.165003   7.544182   -4.64508 H        1 UNL1     0.0308
     91 H         -4.445684   6.704472   -6.513243 H        1 UNL1     0.0233
     92 H         -4.166133   8.395671   -6.026219 H        1 UNL1     0.0233
     93 H         -2.958337   7.534102   -6.955483 H        1 UNL1     0.0233
     94 H         -4.564874   8.098939   -3.807322 H        1 UNL1     0.0233
     95 H         -4.684464   6.35144   -3.549888 H        1 UNL1     0.0233
     96 H         -3.418002   7.286715   -2.722044 H        1 UNL1     0.0233
     97 H         -9.490305   1.17723   4.176308 H        1 UNL1     0.0280
     98 H         -8.293892   1.227171   5.442519 H        1 UNL1     0.0280
     99 H         -9.433896   2.591378   5.244874 H        1 UNL1     0.0280
     100 H         -10.078234   3.953273   2.396742 H        1 UNL1     0.2922
     101 H         1.416986   3.479369   3.204248 H        1 UNL1     0.0236
     102 H         0.036557   3.967883   4.263413 H        1 UNL1     0.0236
     103 H         0.803503   5.103379   3.196671 H        1 UNL1     0.0236
     104 H         2.233717   2.123298   0.658441 H        1 UNL1     0.2098
     105 H         1.657708   0.050473   -0.510142 H        1 UNL1     0.0234
     106 H         0.963051   -1.337431   0.374319 H        1 UNL1     0.0234
     107 H         0.0   0.0   0.0 H        1 UNL1     0.0234
     108 H         0.207472   0.674088   3.891127 H        1 UNL1     0.2098
     109 H         -2.637141   -1.08377   0.976153 H        1 UNL1     0.0234
     110 H         -0.973918   -0.820727   0.361907 H        1 UNL1     0.0234
     111 H         -2.001274   -2.000743   -0.373583 H        1 UNL1     0.0234
     112 H         4.116059   -2.829779   0.840741 H        1 UNL1     0.0342
     113 H         3.33304   -1.886697   -0.476725 H        1 UNL1     0.0342
     114 H         2.666255   -1.860823   1.158115 H        1 UNL1     0.0342
     115 H         2.34518   -3.11913   4.512363 H        1 UNL1     0.0234
     116 H         0.6103   -2.921803   4.780764 H        1 UNL1     0.0234
     117 H         1.286692   -4.272861   3.847607 H        1 UNL1     0.0234
     118 H         -5.286298   -1.586559   2.897938 H        1 UNL1     0.0309
     119 H         -6.620604   -0.488609   2.426564 H        1 UNL1     0.0309
     120 H         -5.082708   -0.47785   1.591751 H        1 UNL1     0.0309
     121 H         -1.668771   -4.412586   5.235176 H        1 UNL1     0.0524
     122 H         -1.433078   -2.948635   6.198583 H        1 UNL1     0.0524
     123 H         -2.897427   -3.118994   5.198382 H        1 UNL1     0.0524
@<TRIPOS>BOND
     1     1     2    1
     2     1    42    1
     3     2     3    2
     4     3     4    1
     5     4     5    2
     6     5     7    1
     7     6    75    1
     8     6    76    1
     9     6    77    1
    10     7     9   am
    11     9    10    1
    12    10    11    2
    13    10    43    1
    14    11    14    1
    15    11    15    1
    16    12    13   ar
    17    12    27   ar
    18    12    43    1
    19    13    14    1
    20    13    30   ar
    21    14    17    2
    22    15    16    1
    23    16    17    1
    24    16    18    1
    25    16    22    1
    26    18    19    1
    27    19    20    1
    28    20    21    1
    29    21    22    1
    30    23    24    1
    31    23    88    1
    32    23    89    1
    33    24    25    1
    34    24    26    1
    35    24    90    1
    36    25    91    1
    37    25    92    1
    38    25    93    1
    39    26    94    1
    40    26    95    1
    41    26    96    1
    42    27    28   ar
    43    28    29   ar
    44    29    30   ar
    45    29    31    1
    46    30    33    1
    47    31    32    1
    48    32    33    1
    49    32    35    1
    50    34    97    1
    51    34    98    1
    52    34    99    1
    53    35    61    1
    54    36    37    1
    55    36    60    1
    56    37    38    1
    57    38    39    1
    58    39    40    1
    59    40    41    1
    60    41    42    1
    61    45   100    1
    62    47   101    1
    63    47   102    1
    64    47   103    1
    65    48   104    1
    66    49   105    1
    67    49   106    1
    68    49   107    1
    69    50   108    1
    70    51    59    1
    71    52   109    1
    72    52   110    1
    73    52   111    1
    74    53    54    1
    75    54    55    2
    76    54    56    1
    77    56   112    1
    78    56   113    1
    79    56   114    1
    80    57   115    1
    81    57   116    1
    82    57   117    1
    83    58   118    1
    84    58   119    1
    85    58   120    1
    86    59   121    1
    87    59   122    1
    88    59   123    1
    89    60    61    2
    90     1    47    1
    91     1    62    1
    92     2    63    1
    93     3    64    1
    94     4    65    1
    95     5     6    1
    96     7     8    2
    97     9    78    1
    98    15    79    1
    99    18    80    1
   100    18    81    1
   101    19    82    1
   102    19    83    1
   103    20    23    1
   104    21    84    1
   105    21    85    1
   106    22    86    1
   107    22    87    1
   108    27    45    1
   109    28    34    1
   110    32    58    1
   111    33    46    2
   112    36    51    1
   113    36    66    1
   114    37    52    1
   115    37    67    1
   116    38    53    1
   117    38    68    1
   118    42    48    1
   119    42    72    1
   120    43    44    2
   121    60    73    1
   122    61    74    1
   123    39    69    1
   124    39    57    1
   125    40    70    1
   126    40    50    1
   127    41    71    1
   128    41    49    1
