@<TRIPOS>MOLECULE
*****
 123 128 0 0 0
SMALL
GASTEIGER

@<TRIPOS>ATOM
     1 C         -2.088972   3.887545   2.305358 C.3        1 UNL1     0.0009
     2 C         -2.372357   5.674948   1.902964 C.2        1 UNL1     -0.0787
     3 C         -2.131697   7.076758   2.173259 C.2        1 UNL1     -0.0649
     4 C         -2.647809   8.413835   1.272032 C.2        1 UNL1     -0.0542
     5 C         -2.425342   9.786188   0.999574 C.2        1 UNL1     0.0115
     6 C         -1.651097   11.050199   1.464487 C.3        1 UNL1     -0.0348
     7 C         -3.038144   10.421275   -0.341369 C.2        1 UNL1     0.2441
     8 O         -4.04739   11.112567   -0.349351 O.2        1 UNL1     -0.2702
     9 N         -2.196773   10.348955   -1.465209 N.am        1 UNL1     -0.2772
     10 C         -2.389635   9.161934   -2.13387 C.2        1 UNL1     0.1049
     11 C         -1.738521   8.114878   -1.66064 C.2        1 UNL1     0.0801
     12 C         -4.174304   7.678555   -3.067613 C.ar        1 UNL1     0.0753
     13 C         -3.543983   6.606187   -2.359565 C.ar        1 UNL1     0.0305
     14 C         -2.230297   6.766095   -1.740122 C.2        1 UNL1     0.0924
     15 N         -0.748168   8.050845   -0.754202 N.pl3        1 UNL1     -0.3170
     16 C         -0.27107   6.693846   -0.719779 C.3        1 UNL1     0.1275
     17 N         -1.46081   5.864334   -1.137094 N.2        1 UNL1     -0.2557
     18 C         0.75905   6.548278   -1.835738 C.3        1 UNL1     0.0016
     19 C         1.840267   7.599041   -1.639636 C.3        1 UNL1     0.0026
     20 N         2.452199   7.402309   -0.332783 N.3        1 UNL1     -0.3018
     21 C         1.528358   7.462869   0.801775 C.3        1 UNL1     0.0026
     22 C         0.453425   6.396094   0.58636 C.3        1 UNL1     0.0016
     23 C         3.68273   8.150147   -0.167941 C.3        1 UNL1     0.0012
     24 C         4.549835   8.045975   -1.43247 C.3        1 UNL1     -0.0339
     25 C         4.323016   6.711391   -2.161507 C.3        1 UNL1     -0.0615
     26 C         4.286742   9.232376   -2.343522 C.3        1 UNL1     -0.0615
     27 C         -5.368754   7.484397   -3.75733 C.ar        1 UNL1     0.1347
     28 C         -6.003709   6.258252   -3.843642 C.ar        1 UNL1     0.0342
     29 C         -5.390887   5.228598   -3.098372 C.ar        1 UNL1     0.1435
     30 C         -4.213732   5.417168   -2.373137 C.ar        1 UNL1     0.0774
     31 O         -5.826847   3.951921   -3.169369 O.3        1 UNL1     -0.4436
     32 C         -4.723561   3.165074   -2.695551 C.3        1 UNL1     0.3143
     33 C         -3.904108   4.107874   -1.83774 C.2        1 UNL1     0.2504
     34 C         -7.141995   5.917706   -4.764746 C.3        1 UNL1     -0.0327
     35 O         -5.258772   2.164055   -1.821043 O.2        1 UNL1     -0.4528
     36 C         -2.932572   -0.821503   -2.109702 C.3        1 UNL1     0.0854
     37 C         -1.379396   -0.903347   -1.848038 C.3        1 UNL1     0.0236
     38 C         -0.930512   -2.019851   -0.788007 C.3        1 UNL1     0.1131
     39 C         -1.636013   -2.088588   0.626141 C.3        1 UNL1     0.0200
     40 C         -1.939774   -0.692809   1.487516 C.3        1 UNL1     0.0661
     41 C         -0.818855   0.538405   1.811959 C.3        1 UNL1     0.0091
     42 C         -1.059453   2.347207   2.001041 C.3        1 UNL1     0.0661
     43 C         -3.467681   8.982561   -3.117737 C.2        1 UNL1     0.2131
     44 O         -3.671715   9.826256   -3.97172 O.2        1 UNL1     -0.2851
     45 O         -5.940041   8.590989   -4.382251 O.3        1 UNL1     -0.5056
     46 O         -3.176816   3.840449   -0.90748 O.2        1 UNL1     -0.2836
     47 C         -2.884555   3.488417   3.577256 C.3        1 UNL1     -0.0566
     48 O         -0.253912   2.439679   3.242681 O.3        1 UNL1     -0.3909
     49 C         0.389742   0.344535   0.923589 C.3        1 UNL1     -0.0577
     50 O         -3.179633   -0.129873   1.108599 O.3        1 UNL1     -0.3910
     51 O         -3.742047   -1.606634   -1.263681 O.3        1 UNL1     -0.3753
     52 C         -0.704364   0.505832   -1.907142 C.3        1 UNL1     -0.0564
     53 O         0.540108   -2.317866   -0.81609 O.3        1 UNL1     -0.4608
     54 C         1.166773   -3.29786   -0.091637 C.2        1 UNL1     0.3042
     55 O         0.885819   -3.683534   1.042452 O.2        1 UNL1     -0.2512
     56 C         2.278095   -3.979747   -0.837766 C.3        1 UNL1     0.0332
     57 C         -2.806742   -3.173988   0.528801 C.3        1 UNL1     -0.0567
     58 C         -3.895064   2.77778   -3.942598 C.3        1 UNL1     0.0210
     59 C         -4.053172   -2.904854   -1.76736 C.3        1 UNL1     0.0372
     60 C         -3.501474   0.553718   -2.093045 C.2        1 UNL1     -0.0208
     61 C         -4.608668   1.02427   -1.517331 C.2        1 UNL1     0.0882
     62 H         -2.714315   3.614899   1.446684 H        1 UNL1     0.0365
     63 H         -3.105048   5.588697   1.097859 H        1 UNL1     0.0576
     64 H         -1.421094   7.398519   2.937864 H        1 UNL1     0.0615
     65 H         -3.404049   7.999005   0.600095 H        1 UNL1     0.0622
     66 H         -3.05883   -1.187378   -3.138411 H        1 UNL1     0.0645
     67 H         -0.970673   -1.315322   -2.787071 H        1 UNL1     0.0362
     68 H         -1.259733   -2.923941   -1.322569 H        1 UNL1     0.0741
     69 H         -1.006687   -2.652101   1.302018 H        1 UNL1     0.0359
     70 H         -2.126498   -1.124005   2.489646 H        1 UNL1     0.0600
     71 H         -0.428133   0.191607   2.7887 H        1 UNL1     0.0348
     72 H         -2.049753   1.892474   2.14882 H        1 UNL1     0.0602
     73 H         -2.942381   1.17096   -2.751586 H        1 UNL1     0.0628
     74 H         -5.204355   0.476273   -0.786514 H        1 UNL1     0.1022
     75 H         -0.574391   10.809156   1.636646 H        1 UNL1     0.0279
     76 H         -1.596426   11.873579   0.75588 H        1 UNL1     0.0279
     77 H         -1.958632   11.393987   2.462952 H        1 UNL1     0.0279
     78 H         -1.224079   10.377856   -1.166697 H        1 UNL1     0.1553
     79 H         -0.176863   8.834723   -0.497142 H        1 UNL1     0.1484
     80 H         1.176064   5.534345   -1.80733 H        1 UNL1     0.0317
     81 H         0.29058   6.667096   -2.818626 H        1 UNL1     0.0317
     82 H         1.440017   8.618685   -1.739831 H        1 UNL1     0.0428
     83 H         2.56327   7.478528   -2.446973 H        1 UNL1     0.0428
     84 H         1.998499   7.233053   1.763005 H        1 UNL1     0.0428
     85 H         1.116983   8.472242   0.940531 H        1 UNL1     0.0428
     86 H         -0.12313   6.378874   1.492603 H        1 UNL1     0.0317
     87 H         0.913436   5.400729   0.559268 H        1 UNL1     0.0317
     88 H         3.422695   9.204765   -0.00839 H        1 UNL1     0.0429
     89 H         4.235705   7.817376   0.719898 H        1 UNL1     0.0429
     90 H         5.607004   8.114118   -1.149692 H        1 UNL1     0.0308
     91 H         5.264004   6.298483   -2.537208 H        1 UNL1     0.0233
     92 H         3.851906   5.983381   -1.496927 H        1 UNL1     0.0233
     93 H         3.654185   6.815328   -3.024465 H        1 UNL1     0.0233
     94 H         3.907051   8.888268   -3.311644 H        1 UNL1     0.0233
     95 H         3.531137   9.885371   -1.897854 H        1 UNL1     0.0233
     96 H         5.197456   9.81274   -2.515994 H        1 UNL1     0.0233
     97 H         -8.093183   6.283251   -4.389448 H        1 UNL1     0.0280
     98 H         -7.018506   6.366888   -5.758849 H        1 UNL1     0.0280
     99 H         -7.211972   4.823252   -4.875963 H        1 UNL1     0.0280
     100 H         -6.869499   8.528686   -4.515847 H        1 UNL1     0.2922
     101 H         -2.677421   2.448589   3.829268 H        1 UNL1     0.0236
     102 H         -3.95308   3.683883   3.493406 H        1 UNL1     0.0236
     103 H         -2.562906   4.060578   4.463465 H        1 UNL1     0.0236
     104 H         0.688495   2.412738   2.985555 H        1 UNL1     0.2098
     105 H         0.954033   1.252996   0.728431 H        1 UNL1     0.0234
     106 H         1.059739   -0.456855   1.234722 H        1 UNL1     0.0234
     107 H         0.0   -0.0   0.0 H        1 UNL1     0.0234
     108 H         -3.780273   -0.208794   1.874609 H        1 UNL1     0.2098
     109 H         -0.674279   0.910147   -2.928581 H        1 UNL1     0.0234
     110 H         -1.172406   1.235679   -1.237811 H        1 UNL1     0.0234
     111 H         0.34053   0.468469   -1.571364 H        1 UNL1     0.0234
     112 H         2.16549   -5.065561   -0.762453 H        1 UNL1     0.0342
     113 H         2.32708   -3.663282   -1.87858 H        1 UNL1     0.0342
     114 H         3.229612   -3.706002   -0.361484 H        1 UNL1     0.0342
     115 H         -2.474486   -4.164644   0.868498 H        1 UNL1     0.0234
     116 H         -3.701232   -2.914456   1.09852 H        1 UNL1     0.0234
     117 H         -3.115407   -3.396401   -0.507153 H        1 UNL1     0.0234
     118 H         -2.934314   3.320006   -3.986845 H        1 UNL1     0.0309
     119 H         -3.703055   1.702486   -4.01386 H        1 UNL1     0.0309
     120 H         -4.388005   3.06051   -4.879176 H        1 UNL1     0.0309
     121 H         -5.063107   -3.151746   -1.44112 H        1 UNL1     0.0524
     122 H         -4.042527   -2.939616   -2.869501 H        1 UNL1     0.0524
     123 H         -3.346462   -3.635765   -1.384708 H        1 UNL1     0.0524
@<TRIPOS>BOND
     1     1     2    1
     2     1    42    1
     3     2     3    2
     4     3     4    1
     5     4     5    2
     6     5     7    1
     7     6    75    1
     8     6    76    1
     9     6    77    1
    10     7     9   am
    11     9    10    1
    12    10    11    2
    13    10    43    1
    14    11    14    1
    15    11    15    1
    16    12    13   ar
    17    12    27   ar
    18    12    43    1
    19    13    14    1
    20    13    30   ar
    21    14    17    2
    22    15    16    1
    23    16    17    1
    24    16    18    1
    25    16    22    1
    26    18    19    1
    27    19    20    1
    28    20    21    1
    29    21    22    1
    30    23    24    1
    31    23    88    1
    32    23    89    1
    33    24    25    1
    34    24    26    1
    35    24    90    1
    36    25    91    1
    37    25    92    1
    38    25    93    1
    39    26    94    1
    40    26    95    1
    41    26    96    1
    42    27    28   ar
    43    28    29   ar
    44    29    30   ar
    45    29    31    1
    46    30    33    1
    47    31    32    1
    48    32    33    1
    49    32    35    1
    50    34    97    1
    51    34    98    1
    52    34    99    1
    53    35    61    1
    54    36    37    1
    55    36    60    1
    56    37    38    1
    57    38    39    1
    58    39    40    1
    59    40    41    1
    60    41    42    1
    61    45   100    1
    62    47   101    1
    63    47   102    1
    64    47   103    1
    65    48   104    1
    66    49   105    1
    67    49   106    1
    68    49   107    1
    69    50   108    1
    70    51    59    1
    71    52   109    1
    72    52   110    1
    73    52   111    1
    74    53    54    1
    75    54    55    2
    76    54    56    1
    77    56   112    1
    78    56   113    1
    79    56   114    1
    80    57   115    1
    81    57   116    1
    82    57   117    1
    83    58   118    1
    84    58   119    1
    85    58   120    1
    86    59   121    1
    87    59   122    1
    88    59   123    1
    89    60    61    2
    90     1    47    1
    91     1    62    1
    92     2    63    1
    93     3    64    1
    94     4    65    1
    95     5     6    1
    96     7     8    2
    97     9    78    1
    98    15    79    1
    99    18    80    1
   100    18    81    1
   101    19    82    1
   102    19    83    1
   103    20    23    1
   104    21    84    1
   105    21    85    1
   106    22    86    1
   107    22    87    1
   108    27    45    1
   109    28    34    1
   110    32    58    1
   111    33    46    2
   112    36    51    1
   113    36    66    1
   114    37    52    1
   115    37    67    1
   116    38    53    1
   117    38    68    1
   118    42    48    1
   119    42    72    1
   120    43    44    2
   121    60    73    1
   122    61    74    1
   123    39    69    1
   124    39    57    1
   125    40    70    1
   126    40    50    1
   127    41    71    1
   128    41    49    1
