@<TRIPOS>MOLECULE
*****
 123 128 0 0 0
SMALL
GASTEIGER

@<TRIPOS>ATOM
     1 C         -3.974139   1.264184   -0.060587 C.3        1 UNL1     0.0009
     2 C         -4.827237   2.348746   1.17755 C.2        1 UNL1     -0.0787
     3 C         -5.716462   2.504213   2.309431 C.2        1 UNL1     -0.0649
     4 C         -6.057806   3.916653   3.178255 C.2        1 UNL1     -0.0542
     5 C         -6.554237   4.437739   4.398543 C.2        1 UNL1     0.0115
     6 C         -7.278923   4.065909   5.721379 C.3        1 UNL1     -0.0348
     7 C         -6.225172   5.960969   4.783871 C.2        1 UNL1     0.2441
     8 O         -7.036397   6.868429   4.661576 O.2        1 UNL1     -0.2702
     9 N         -5.037097   6.140432   5.513543 N.am        1 UNL1     -0.2772
     10 C         -3.968701   6.296701   4.660647 C.2        1 UNL1     0.1049
     11 C         -3.433589   5.185475   4.188363 C.2        1 UNL1     0.0801
     12 C         -3.210939   7.56512   2.642172 C.ar        1 UNL1     0.0753
     13 C         -2.836083   6.301009   2.085292 C.ar        1 UNL1     0.0305
     14 C         -2.814667   5.084539   2.894483 C.2        1 UNL1     0.0924
     15 N         -3.622847   3.908559   4.562789 N.pl3        1 UNL1     -0.3170
     16 C         -2.673825   3.096084   3.849 C.3        1 UNL1     0.1275
     17 N         -2.404518   3.860176   2.575673 N.2        1 UNL1     -0.2557
     18 C         -1.37049   3.12129   4.641707 C.3        1 UNL1     0.0016
     19 C         -1.655018   2.654366   6.060374 C.3        1 UNL1     0.0026
     20 N         -2.210207   1.309003   6.007536 N.3        1 UNL1     -0.3018
     21 C         -3.433706   1.17202   5.214659 C.3        1 UNL1     0.0026
     22 C         -3.123769   1.64216   3.792406 C.3        1 UNL1     0.0016
     23 C         -2.237419   0.6589   7.30263 C.3        1 UNL1     0.0012
     24 C         -1.600802   1.56099   8.371606 C.3        1 UNL1     -0.0339
     25 C         -1.554686   3.028266   7.914406 C.3        1 UNL1     -0.0615
     26 C         -2.340794   1.409043   9.689219 C.3        1 UNL1     -0.0615
     27 C         -3.113208   8.738865   1.898606 C.ar        1 UNL1     0.1347
     28 C         -2.619347   8.779144   0.60689 C.ar        1 UNL1     0.0342
     29 C         -2.302478   7.516528   0.062318 C.ar        1 UNL1     0.1435
     30 C         -2.429375   6.328271   0.782848 C.ar        1 UNL1     0.0774
     31 O         -1.707267   7.398878   -1.144699 O.3        1 UNL1     -0.4436
     32 C         -1.131439   6.083867   -1.138462 C.3        1 UNL1     0.3143
     33 C         -1.931805   5.30579   -0.113658 C.2        1 UNL1     0.2504
     34 C         -2.251099   10.019902   -0.15797 C.3        1 UNL1     -0.0327
     35 O         -1.403227   5.49377   -2.415634 O.2        1 UNL1     -0.4528
     36 C         1.477118   3.117713   -3.098313 C.3        1 UNL1     0.0854
     37 C         1.989551   1.899828   -2.237099 C.3        1 UNL1     0.0236
     38 C         2.064761   0.502422   -3.020263 C.3        1 UNL1     0.1131
     39 C         0.808817   -0.010157   -3.833981 C.3        1 UNL1     0.0200
     40 C         -0.72285   0.101893   -3.182921 C.3        1 UNL1     0.0661
     41 C         -1.184311   -0.413469   -1.634029 C.3        1 UNL1     0.0091
     42 C         -2.449743   0.2539   -0.485681 C.3        1 UNL1     0.0661
     43 C         -3.622717   7.597038   4.067542 C.2        1 UNL1     0.2131
     44 O         -3.585484   8.600326   4.756572 O.2        1 UNL1     -0.2851
     45 O         -3.541593   9.920741   2.499517 O.3        1 UNL1     -0.5056
     46 O         -2.132186   4.112896   -0.061651 O.2        1 UNL1     -0.2836
     47 C         -4.978963   0.789425   -1.144522 C.3        1 UNL1     -0.0566
     48 O         -3.042563   -1.072166   -0.186969 O.3        1 UNL1     -0.3909
     49 C         0.060468   -0.674428   -0.815543 C.3        1 UNL1     -0.0577
     50 O         -1.295351   1.363474   -3.462889 O.3        1 UNL1     -0.3910
     51 O         0.987504   2.801749   -4.38201 O.3        1 UNL1     -0.3753
     52 C         1.510938   1.995436   -0.75159 C.3        1 UNL1     -0.0564
     53 O         2.870617   -0.543359   -2.306637 O.3        1 UNL1     -0.4608
     54 C         3.55544   -1.566891   -2.907744 C.2        1 UNL1     0.3042
     55 O         4.084853   -2.533689   -2.361062 O.2        1 UNL1     -0.2512
     56 C         3.582604   -1.473511   -4.406829 C.3        1 UNL1     0.0332
     57 C         1.005778   0.436716   -5.357032 C.3        1 UNL1     -0.0567
     58 C         0.317856   6.243427   -0.623084 C.3        1 UNL1     0.0210
     59 C         0.642461   1.430231   -4.571081 C.3        1 UNL1     0.0372
     60 C         0.443142   3.962244   -2.440422 C.2        1 UNL1     -0.0208
     61 C         -0.695866   4.464262   -2.919361 C.2        1 UNL1     0.0882
     62 H         -3.473811   2.152265   -0.46518 H        1 UNL1     0.0365
     63 H         -4.515989   3.336602   0.831522 H        1 UNL1     0.0576
     64 H         -6.142574   1.640909   2.825419 H        1 UNL1     0.0615
     65 H         -5.663266   4.714781   2.543579 H        1 UNL1     0.0622
     66 H         2.359868   3.761352   -3.218845 H        1 UNL1     0.0645
     67 H         3.059333   2.117969   -2.074184 H        1 UNL1     0.0362
     68 H         2.819979   0.75738   -3.779318 H        1 UNL1     0.0741
     69 H         0.915957   -1.072772   -4.006549 H        1 UNL1     0.0359
     70 H         -1.263627   -0.600483   -3.84571 H        1 UNL1     0.0600
     71 H         -1.513317   -1.445884   -1.863876 H        1 UNL1     0.0348
     72 H         -2.70991   0.640768   -1.481654 H        1 UNL1     0.0602
     73 H         0.791033   4.256668   -1.481498 H        1 UNL1     0.0628
     74 H         -1.149644   4.169623   -3.866204 H        1 UNL1     0.1022
     75 H         -8.172559   3.429401   5.513276 H        1 UNL1     0.0279
     76 H         -6.717794   3.458172   6.427677 H        1 UNL1     0.0279
     77 H         -7.741279   4.935052   6.211806 H        1 UNL1     0.0279
     78 H         -4.857035   5.315627   6.082184 H        1 UNL1     0.1553
     79 H         -4.011978   3.639456   5.447714 H        1 UNL1     0.1484
     80 H         -0.637931   2.472916   4.14599 H        1 UNL1     0.0317
     81 H         -0.939768   4.128247   4.654614 H        1 UNL1     0.0317
     82 H         -2.333068   3.341973   6.58702 H        1 UNL1     0.0428
     83 H         -0.712775   2.681754   6.608533 H        1 UNL1     0.0428
     84 H         -3.785152   0.139399   5.125272 H        1 UNL1     0.0428
     85 H         -4.279458   1.70296   5.67305 H        1 UNL1     0.0428
     86 H         -3.996058   1.404332   3.212286 H        1 UNL1     0.0317
     87 H         -2.34455   1.009504   3.350071 H        1 UNL1     0.0317
     88 H         -3.286404   0.482135   7.574071 H        1 UNL1     0.0429
     89 H         -1.744815   -0.321334   7.267188 H        1 UNL1     0.0429
     90 H         -0.575622   1.222525   8.563074 H        1 UNL1     0.0308
     91 H         -1.016899   3.652462   8.634314 H        1 UNL1     0.0233
     92 H         -1.074412   3.113347   6.936803 H        1 UNL1     0.0233
     93 H         -2.555578   3.462389   7.802205 H        1 UNL1     0.0233
     94 H         -1.784162   1.901343   10.493977 H        1 UNL1     0.0233
     95 H         -3.324709   1.881621   9.621823 H        1 UNL1     0.0233
     96 H         -2.472298   0.356138   9.95392 H        1 UNL1     0.0233
     97 H         -1.196467   10.041605   -0.415868 H        1 UNL1     0.0280
     98 H         -2.794621   10.096535   -1.108741 H        1 UNL1     0.0280
     99 H         -2.476014   10.909951   0.452211 H        1 UNL1     0.0280
     100 H         -3.593961   9.88593   3.438489 H        1 UNL1     0.2922
     101 H         -5.065607   1.547386   -1.922754 H        1 UNL1     0.0236
     102 H         -5.949528   0.509699   -0.736182 H        1 UNL1     0.0236
     103 H         -4.624886   -0.112757   -1.670725 H        1 UNL1     0.0236
     104 H         -3.256473   -1.091636   0.766359 H        1 UNL1     0.2098
     105 H         0.128835   -1.680964   -0.410547 H        1 UNL1     0.0234
     106 H         0.994122   -0.400633   -1.30672 H        1 UNL1     0.0234
     107 H         0.0   0.0   0.0 H        1 UNL1     0.0234
     108 H         -1.887771   1.249223   -4.230843 H        1 UNL1     0.2098
     109 H         0.942711   2.915537   -0.556032 H        1 UNL1     0.0234
     110 H         0.924303   1.12752   -0.431707 H        1 UNL1     0.0234
     111 H         2.358628   2.015616   -0.053764 H        1 UNL1     0.0234
     112 H         4.165439   -0.600126   -4.714803 H        1 UNL1     0.0342
     113 H         3.967787   -2.382273   -4.866859 H        1 UNL1     0.0342
     114 H         2.551997   -1.332415   -4.760533 H        1 UNL1     0.0342
     115 H         0.590351   -0.301903   -6.056353 H        1 UNL1     0.0234
     116 H         0.559343   1.403691   -5.597252 H        1 UNL1     0.0234
     117 H         2.062216   0.460861   -5.675304 H        1 UNL1     0.0234
     118 H         0.527371   5.582743   0.236338 H        1 UNL1     0.0309
     119 H         1.070985   6.071857   -1.398689 H        1 UNL1     0.0309
     120 H         0.514739   7.245071   -0.225524 H        1 UNL1     0.0309
     121 H         1.514855   0.831781   -4.310038 H        1 UNL1     0.0524
     122 H         -0.185837   1.113041   -3.915833 H        1 UNL1     0.0524
     123 H         0.361778   1.252415   -5.60534 H        1 UNL1     0.0524
@<TRIPOS>BOND
     1     1     2    1
     2     1    42    1
     3     2     3    2
     4     3     4    1
     5     4     5    2
     6     5     7    1
     7     6    75    1
     8     6    76    1
     9     6    77    1
    10     7     9   am
    11     9    10    1
    12    10    11    2
    13    10    43    1
    14    11    14    1
    15    11    15    1
    16    12    13   ar
    17    12    27   ar
    18    12    43    1
    19    13    14    1
    20    13    30   ar
    21    14    17    2
    22    15    16    1
    23    16    17    1
    24    16    18    1
    25    16    22    1
    26    18    19    1
    27    19    20    1
    28    20    21    1
    29    21    22    1
    30    23    24    1
    31    23    88    1
    32    23    89    1
    33    24    25    1
    34    24    26    1
    35    24    90    1
    36    25    91    1
    37    25    92    1
    38    25    93    1
    39    26    94    1
    40    26    95    1
    41    26    96    1
    42    27    28   ar
    43    28    29   ar
    44    29    30   ar
    45    29    31    1
    46    30    33    1
    47    31    32    1
    48    32    33    1
    49    32    35    1
    50    34    97    1
    51    34    98    1
    52    34    99    1
    53    35    61    1
    54    36    37    1
    55    36    60    1
    56    37    38    1
    57    38    39    1
    58    39    40    1
    59    40    41    1
    60    41    42    1
    61    45   100    1
    62    47   101    1
    63    47   102    1
    64    47   103    1
    65    48   104    1
    66    49   105    1
    67    49   106    1
    68    49   107    1
    69    50   108    1
    70    51    59    1
    71    52   109    1
    72    52   110    1
    73    52   111    1
    74    53    54    1
    75    54    55    2
    76    54    56    1
    77    56   112    1
    78    56   113    1
    79    56   114    1
    80    57   115    1
    81    57   116    1
    82    57   117    1
    83    58   118    1
    84    58   119    1
    85    58   120    1
    86    59   121    1
    87    59   122    1
    88    59   123    1
    89    60    61    2
    90     1    47    1
    91     1    62    1
    92     2    63    1
    93     3    64    1
    94     4    65    1
    95     5     6    1
    96     7     8    2
    97     9    78    1
    98    15    79    1
    99    18    80    1
   100    18    81    1
   101    19    82    1
   102    19    83    1
   103    20    23    1
   104    21    84    1
   105    21    85    1
   106    22    86    1
   107    22    87    1
   108    27    45    1
   109    28    34    1
   110    32    58    1
   111    33    46    2
   112    36    51    1
   113    36    66    1
   114    37    52    1
   115    37    67    1
   116    38    53    1
   117    38    68    1
   118    42    48    1
   119    42    72    1
   120    43    44    2
   121    60    73    1
   122    61    74    1
   123    39    69    1
   124    39    57    1
   125    40    70    1
   126    40    50    1
   127    41    71    1
   128    41    49    1
