@<TRIPOS>MOLECULE
*****
 123 128 0 0 0
SMALL
GASTEIGER

@<TRIPOS>ATOM
     1 C         5.167949   1.745406   0.494946 C.3        1 UNL1     0.0009
     2 C         6.605782   2.550568   -0.354399 C.2        1 UNL1     -0.0787
     3 C         7.888035   2.451528   -1.01928 C.2        1 UNL1     -0.0649
     4 C         8.766872   3.686097   -1.774158 C.2        1 UNL1     -0.0542
     5 C         9.787735   3.978102   -2.712055 C.2        1 UNL1     0.0115
     6 C         10.916063   3.351935   -3.57699 C.3        1 UNL1     -0.0348
     7 C         9.884542   5.46135   -3.318352 C.2        1 UNL1     0.2441
     8 O         10.708761   6.282369   -2.940047 O.2        1 UNL1     -0.2702
     9 N         9.135251   5.668968   -4.489509 N.am        1 UNL1     -0.2772
     10 C         7.852604   6.056538   -4.176573 C.2        1 UNL1     0.1049
     11 C         7.005928   5.085703   -3.8853 C.2        1 UNL1     0.0801
     12 C         6.554421   7.663982   -2.766546 C.ar        1 UNL1     0.0753
     13 C         5.794257   6.536568   -2.319674 C.ar        1 UNL1     0.0305
     14 C         5.910683   5.230846   -2.965109 C.2        1 UNL1     0.0924
     15 N         7.127701   3.756653   -4.044436 N.pl3        1 UNL1     -0.3170
     16 C         5.857203   3.158363   -3.731167 C.3        1 UNL1     0.1275
     17 N         5.220834   4.113958   -2.751578 N.2        1 UNL1     -0.2557
     18 C         5.005242   3.218167   -4.995401 C.3        1 UNL1     0.0016
     19 C         5.760387   2.533643   -6.123574 C.3        1 UNL1     0.0026
     20 N         6.029283   1.15531   -5.737668 N.3        1 UNL1     -0.3018
     21 C         6.791696   0.994249   -4.497848 C.3        1 UNL1     0.0026
     22 C         6.012697   1.685219   -3.377306 C.3        1 UNL1     0.0016
     23 C         6.473943   0.335562   -6.847142 C.3        1 UNL1     0.0012
     24 C         5.318976   0.087009   -7.83001 C.3        1 UNL1     -0.0339
     25 C         5.346028   1.090281   -8.994815 C.3        1 UNL1     -0.0615
     26 C         5.357674   -1.347678   -8.326957 C.3        1 UNL1     -0.0615
     27 C         6.35031   8.931771   -2.226945 C.ar        1 UNL1     0.1347
     28 C         5.390804   9.201914   -1.267559 C.ar        1 UNL1     0.0342
     29 C         4.688122   8.067924   -0.807703 C.ar        1 UNL1     0.1435
     30 C         4.906983   6.785788   -1.31312 C.ar        1 UNL1     0.0774
     31 O         3.646644   8.182156   0.045105 O.3        1 UNL1     -0.4436
     32 C         2.924178   6.949867   -0.097652 C.3        1 UNL1     0.3143
     33 C         3.937116   5.956085   -0.629221 C.2        1 UNL1     0.2504
     34 C         4.944652   10.568297   -0.827052 C.3        1 UNL1     -0.0327
     35 O         2.562355   6.513304   1.218308 O.2        1 UNL1     -0.4528
     36 C         -0.681812   4.58348   0.819247 C.3        1 UNL1     0.0854
     37 C         -0.987428   3.323197   -0.078421 C.3        1 UNL1     0.0236
     38 C         -1.589409   2.062513   0.709005 C.3        1 UNL1     0.1131
     39 C         -0.864892   1.530942   2.010841 C.3        1 UNL1     0.0200
     40 C         0.796168   1.384201   2.053093 C.3        1 UNL1     0.0661
     41 C         1.755757   0.614787   0.884846 C.3        1 UNL1     0.0091
     42 C         3.463976   0.976169   0.322001 C.3        1 UNL1     0.0661
     43 C         7.505054   7.455697   -3.886892 C.2        1 UNL1     0.2131
     44 O         7.906055   8.353551   -4.60508 O.2        1 UNL1     -0.2851
     45 O         7.163621   9.966335   -2.684808 O.3        1 UNL1     -0.5056
     46 O         3.952155   4.752528   -0.498537 O.2        1 UNL1     -0.2836
     47 C         5.563056   1.315521   1.933372 C.3        1 UNL1     -0.0566
     48 O         3.911472   -0.435265   0.403962 O.3        1 UNL1     -0.3909
     49 C         0.922219   0.382901   -0.355693 C.3        1 UNL1     -0.0577
     50 O         1.396982   2.601599   2.446396 O.3        1 UNL1     -0.3910
     51 O         -0.806952   4.393779   2.210572 O.3        1 UNL1     -0.3753
     52 C         0.057669   3.162072   -1.230272 C.3        1 UNL1     -0.0564
     53 O         -2.192166   1.024037   -0.191316 O.3        1 UNL1     -0.4608
     54 C         -2.415635   -0.285821   0.143741 C.2        1 UNL1     0.3042
     55 O         -1.843757   -1.27917   -0.30353 O.2        1 UNL1     -0.2512
     56 C         -3.446037   -0.463293   1.222393 C.3        1 UNL1     0.0332
     57 C         -1.586267   2.20035   3.271668 C.3        1 UNL1     -0.0567
     58 C         1.849871   7.195819   -1.182503 C.3        1 UNL1     0.0210
     59 C         -1.15071   5.566605   2.946897 C.3        1 UNL1     0.0372
     60 C         0.647787   5.211627   0.589553 C.2        1 UNL1     -0.0208
     61 C         1.560465   5.646133   1.459592 C.2        1 UNL1     0.0882
     62 H         4.692681   2.729914   0.581981 H        1 UNL1     0.0365
     63 H         6.340225   3.60455   -0.249185 H        1 UNL1     0.0576
     64 H         8.345137   1.484366   -1.240104 H        1 UNL1     0.0615
     65 H         8.280223   4.601816   -1.427586 H        1 UNL1     0.0622
     66 H         -1.425722   5.330569   0.508596 H        1 UNL1     0.0645
     67 H         -1.852353   3.633234   -0.690255 H        1 UNL1     0.0362
     68 H         -2.536393   2.500044   1.060158 H        1 UNL1     0.0741
     69 H         -1.197271   0.520068   2.205947 H        1 UNL1     0.0359
     70 H         0.906893   0.723722   2.934324 H        1 UNL1     0.0600
     71 H         1.798325   -0.406442   1.311737 H        1 UNL1     0.0348
     72 H         3.357808   1.464375   1.301643 H        1 UNL1     0.0602
     73 H         0.7665   5.40887   -0.446907 H        1 UNL1     0.0628
     74 H         1.542071   5.4354   2.529401 H        1 UNL1     0.1022
     75 H         10.959647   2.246612   -3.424028 H        1 UNL1     0.0279
     76 H         10.803192   3.434887   -4.655622 H        1 UNL1     0.0279
     77 H         11.921145   3.655889   -3.249693 H        1 UNL1     0.0279
     78 H         9.072964   4.799104   -5.014422 H        1 UNL1     0.1553
     79 H         7.793064   3.328228   -4.661427 H        1 UNL1     0.1484
     80 H         4.043481   2.727912   -4.801927 H        1 UNL1     0.0317
     81 H         4.779558   4.255103   -5.266474 H        1 UNL1     0.0317
     82 H         6.691594   3.064291   -6.370916 H        1 UNL1     0.0428
     83 H         5.135854   2.589303   -7.015712 H        1 UNL1     0.0428
     84 H         6.911063   -0.048812   -4.188678 H        1 UNL1     0.0428
     85 H         7.822122   1.361546   -4.600971 H        1 UNL1     0.0428
     86 H         6.52835   1.434417   -2.468907 H        1 UNL1     0.0317
     87 H         5.032827   1.20828   -3.252887 H        1 UNL1     0.0317
     88 H         7.270739   0.876822   -7.373875 H        1 UNL1     0.0429
     89 H         6.905628   -0.610548   -6.496004 H        1 UNL1     0.0429
     90 H         4.365846   0.194367   -7.298755 H        1 UNL1     0.0308
     91 H         6.295266   1.044728   -9.537008 H        1 UNL1     0.0233
     92 H         4.52606   0.896822   -9.690397 H        1 UNL1     0.0233
     93 H         5.222203   2.126219   -8.656681 H        1 UNL1     0.0233
     94 H         4.661843   -1.476694   -9.163026 H        1 UNL1     0.0233
     95 H         6.362101   -1.592652   -8.683435 H        1 UNL1     0.0233
     96 H         5.082282   -2.051373   -7.536425 H        1 UNL1     0.0233
     97 H         4.150798   10.519038   -0.087729 H        1 UNL1     0.0280
     98 H         5.75751   11.137722   -0.357718 H        1 UNL1     0.0280
     99 H         4.571945   11.13316   -1.697175 H        1 UNL1     0.0280
     100 H         6.697336   10.717042   -3.008288 H        1 UNL1     0.2922
     101 H         4.699603   0.882469   2.437923 H        1 UNL1     0.0236
     102 H         6.014041   2.120502   2.512684 H        1 UNL1     0.0236
     103 H         6.318728   0.512307   1.932708 H        1 UNL1     0.0236
     104 H         4.330349   -0.561615   1.277774 H        1 UNL1     0.2098
     105 H         0.710274   1.281978   -0.928887 H        1 UNL1     0.0234
     106 H         1.291675   -0.405088   -1.011821 H        1 UNL1     0.0234
     107 H         0.0   -0.0   0.0 H        1 UNL1     0.0234
     108 H         1.199356   3.26004   1.752734 H        1 UNL1     0.2098
     109 H         1.082176   3.047834   -0.849421 H        1 UNL1     0.0234
     110 H         -0.174928   2.335184   -1.909903 H        1 UNL1     0.0234
     111 H         0.079918   4.044913   -1.882991 H        1 UNL1     0.0234
     112 H         -3.572288   -1.527168   1.445051 H        1 UNL1     0.0342
     113 H         -3.197683   0.097424   2.12226 H        1 UNL1     0.0342
     114 H         -4.405374   -0.081716   0.846579 H        1 UNL1     0.0342
     115 H         -2.652064   1.937699   3.319408 H        1 UNL1     0.0234
     116 H         -1.139271   1.934592   4.231677 H        1 UNL1     0.0234
     117 H         -1.640431   3.30113   3.214298 H        1 UNL1     0.0234
     118 H         0.94888   7.683345   -0.770749 H        1 UNL1     0.0309
     119 H         2.220209   7.783592   -2.028419 H        1 UNL1     0.0309
     120 H         1.460906   6.264167   -1.607751 H        1 UNL1     0.0309
     121 H         -0.345873   6.288593   2.811521 H        1 UNL1     0.0524
     122 H         -2.080299   6.033145   2.580507 H        1 UNL1     0.0524
     123 H         -1.267248   5.328325   4.000337 H        1 UNL1     0.0524
@<TRIPOS>BOND
     1     1     2    1
     2     1    42    1
     3     2     3    2
     4     3     4    1
     5     4     5    2
     6     5     7    1
     7     6    75    1
     8     6    76    1
     9     6    77    1
    10     7     9   am
    11     9    10    1
    12    10    11    2
    13    10    43    1
    14    11    14    1
    15    11    15    1
    16    12    13   ar
    17    12    27   ar
    18    12    43    1
    19    13    14    1
    20    13    30   ar
    21    14    17    2
    22    15    16    1
    23    16    17    1
    24    16    18    1
    25    16    22    1
    26    18    19    1
    27    19    20    1
    28    20    21    1
    29    21    22    1
    30    23    24    1
    31    23    88    1
    32    23    89    1
    33    24    25    1
    34    24    26    1
    35    24    90    1
    36    25    91    1
    37    25    92    1
    38    25    93    1
    39    26    94    1
    40    26    95    1
    41    26    96    1
    42    27    28   ar
    43    28    29   ar
    44    29    30   ar
    45    29    31    1
    46    30    33    1
    47    31    32    1
    48    32    33    1
    49    32    35    1
    50    34    97    1
    51    34    98    1
    52    34    99    1
    53    35    61    1
    54    36    37    1
    55    36    60    1
    56    37    38    1
    57    38    39    1
    58    39    40    1
    59    40    41    1
    60    41    42    1
    61    45   100    1
    62    47   101    1
    63    47   102    1
    64    47   103    1
    65    48   104    1
    66    49   105    1
    67    49   106    1
    68    49   107    1
    69    50   108    1
    70    51    59    1
    71    52   109    1
    72    52   110    1
    73    52   111    1
    74    53    54    1
    75    54    55    2
    76    54    56    1
    77    56   112    1
    78    56   113    1
    79    56   114    1
    80    57   115    1
    81    57   116    1
    82    57   117    1
    83    58   118    1
    84    58   119    1
    85    58   120    1
    86    59   121    1
    87    59   122    1
    88    59   123    1
    89    60    61    2
    90     1    47    1
    91     1    62    1
    92     2    63    1
    93     3    64    1
    94     4    65    1
    95     5     6    1
    96     7     8    2
    97     9    78    1
    98    15    79    1
    99    18    80    1
   100    18    81    1
   101    19    82    1
   102    19    83    1
   103    20    23    1
   104    21    84    1
   105    21    85    1
   106    22    86    1
   107    22    87    1
   108    27    45    1
   109    28    34    1
   110    32    58    1
   111    33    46    2
   112    36    51    1
   113    36    66    1
   114    37    52    1
   115    37    67    1
   116    38    53    1
   117    38    68    1
   118    42    48    1
   119    42    72    1
   120    43    44    2
   121    60    73    1
   122    61    74    1
   123    39    69    1
   124    39    57    1
   125    40    70    1
   126    40    50    1
   127    41    71    1
   128    41    49    1
