@<TRIPOS>MOLECULE
*****
 123 128 0 0 0
SMALL
GASTEIGER

@<TRIPOS>ATOM
     1 C         -4.696106   -0.235899   -2.551709 C.3        1 UNL1     0.0009
     2 C         -5.754996   0.698353   -3.752943 C.2        1 UNL1     -0.0787
     3 C         -6.952638   1.457409   -4.045403 C.2        1 UNL1     -0.0649
     4 C         -7.358063   2.24697   -5.487132 C.2        1 UNL1     -0.0542
     5 C         -8.168524   3.250392   -6.073114 C.2        1 UNL1     0.0115
     6 C         -9.363418   4.209373   -5.816393 C.3        1 UNL1     -0.0348
     7 C         -7.767114   3.82899   -7.515711 C.2        1 UNL1     0.2441
     8 O         -8.332004   3.493896   -8.547765 O.2        1 UNL1     -0.2702
     9 N         -6.902745   4.937205   -7.486114 N.am        1 UNL1     -0.2772
     10 C         -5.590832   4.522611   -7.46825 C.2        1 UNL1     0.1049
     11 C         -5.101004   4.19178   -6.287216 C.2        1 UNL1     0.0801
     12 C         -3.980501   2.985857   -8.609546 C.ar        1 UNL1     0.0753
     13 C         -3.631995   2.509707   -7.305539 C.ar        1 UNL1     0.0305
     14 C         -4.086749   3.190836   -6.095451 C.2        1 UNL1     0.0924
     15 N         -5.605096   4.388949   -5.056954 N.pl3        1 UNL1     -0.3170
     16 C         -4.601864   3.996852   -4.102994 C.3        1 UNL1     0.1275
     17 N         -3.784038   2.952258   -4.822512 N.2        1 UNL1     -0.2557
     18 C         -3.677336   5.193641   -3.901382 C.3        1 UNL1     0.0016
     19 C         -4.514982   6.38905   -3.476018 C.3        1 UNL1     0.0026
     20 N         -5.215478   6.054649   -2.243739 N.3        1 UNL1     -0.3018
     21 C         -6.083544   4.877898   -2.321745 C.3        1 UNL1     0.0026
     22 C         -5.2207   3.688205   -2.746039 C.3        1 UNL1     0.0016
     23 C         -5.800215   7.211682   -1.595664 C.3        1 UNL1     0.0012
     24 C         -4.70766   8.218633   -1.203071 C.3        1 UNL1     -0.0339
     25 C         -3.454777   7.507863   -0.665346 C.3        1 UNL1     -0.0615
     26 C         -4.37806   9.115971   -2.383295 C.3        1 UNL1     -0.0615
     27 C         -3.44574   2.404673   -9.756879 C.ar        1 UNL1     0.1347
     28 C         -2.525825   1.371808   -9.725325 C.ar        1 UNL1     0.0342
     29 C         -2.234928   0.887069   -8.432433 C.ar        1 UNL1     0.1435
     30 C         -2.790648   1.435569   -7.275911 C.ar        1 UNL1     0.0774
     31 O         -1.275932   -0.042065   -8.227387 O.3        1 UNL1     -0.4436
     32 C         -0.949726   0.074778   -6.834258 C.3        1 UNL1     0.3143
     33 C         -2.171258   0.701101   -6.192547 C.2        1 UNL1     0.2504
     34 C         -1.723722   0.869504   -10.89341 C.3        1 UNL1     -0.0327
     35 O         -0.838141   -1.254106   -6.30998 O.2        1 UNL1     -0.4528
     36 C         1.694167   -1.050897   -3.489659 C.3        1 UNL1     0.0854
     37 C         1.673536   -0.150201   -2.195115 C.3        1 UNL1     0.0236
     38 C         1.805467   -0.951352   -0.812185 C.3        1 UNL1     0.1131
     39 C         0.857011   -2.184468   -0.525609 C.3        1 UNL1     0.0200
     40 C         -0.769167   -2.10166   -0.887723 C.3        1 UNL1     0.0661
     41 C         -1.823639   -0.84943   -0.443181 C.3        1 UNL1     0.0091
     42 C         -3.295185   -0.171155   -1.303354 C.3        1 UNL1     0.0661
     43 C         -4.86102   4.177182   -8.697236 C.2        1 UNL1     0.2131
     44 O         -4.91658   4.902653   -9.673629 O.2        1 UNL1     -0.2851
     45 O         -3.871899   2.897741   -10.988427 O.3        1 UNL1     -0.5056
     46 O         -2.558271   0.598688   -5.049924 O.2        1 UNL1     -0.2836
     47 C         -5.311291   -1.631596   -2.262647 C.3        1 UNL1     -0.0566
     48 O         -4.152137   -0.188684   -0.093212 O.3        1 UNL1     -0.3909
     49 C         -1.006342   0.331575   0.030895 C.3        1 UNL1     -0.0577
     50 O         -1.003418   -2.476895   -2.230127 O.3        1 UNL1     -0.3910
     51 O         1.649428   -2.443083   -3.272294 O.3        1 UNL1     -0.3753
     52 C         0.71986   1.078407   -2.356278 C.3        1 UNL1     -0.0564
     53 O         2.134299   -0.074712   0.360716 O.3        1 UNL1     -0.4608
     54 C         3.165342   0.826325   0.415596 C.2        1 UNL1     0.3042
     55 O         4.18308   0.755752   1.103395 O.2        1 UNL1     -0.2512
     56 C         3.006122   1.980898   -0.532204 C.3        1 UNL1     0.0332
     57 C         1.647851   -3.509332   -0.946892 C.3        1 UNL1     -0.0567
     58 C         0.228494   1.072281   -6.743066 C.3        1 UNL1     0.0210
     59 C         1.369491   -2.83117   -1.928088 C.3        1 UNL1     0.0372
     60 C         0.637364   -0.738466   -4.490017 C.2        1 UNL1     -0.0208
     61 C         -0.165726   -1.548769   -5.180813 C.2        1 UNL1     0.0882
     62 H         -3.954357   -0.379402   -3.346648 H        1 UNL1     0.0365
     63 H         -5.193017   0.550539   -4.677497 H        1 UNL1     0.0576
     64 H         -7.661651   1.732593   -3.261387 H        1 UNL1     0.0615
     65 H         -6.646096   1.845388   -6.213298 H        1 UNL1     0.0622
     66 H         2.650131   -0.812275   -3.976731 H        1 UNL1     0.0645
     67 H         2.635858   0.389584   -2.228721 H        1 UNL1     0.0362
     68 H         2.810488   -1.380577   -0.943416 H        1 UNL1     0.0741
     69 H         0.853331   -2.38085   0.538266 H        1 UNL1     0.0359
     70 H         -1.140909   -2.957495   -0.292396 H        1 UNL1     0.0600
     71 H         -2.204543   -1.249222   0.517046 H        1 UNL1     0.0348
     72 H         -3.12214   -1.166564   -1.737556 H        1 UNL1     0.0602
     73 H         0.663319   0.299259   -4.712956 H        1 UNL1     0.0628
     74 H         -0.293645   -2.612096   -4.975361 H        1 UNL1     0.1022
     75 H         -10.099174   4.15202   -6.654491 H        1 UNL1     0.0279
     76 H         -9.980874   3.993278   -4.947416 H        1 UNL1     0.0279
     77 H         -9.073552   5.269666   -5.854554 H        1 UNL1     0.0279
     78 H         -7.065515   5.475374   -6.637612 H        1 UNL1     0.1553
     79 H         -6.31936   5.062401   -4.849056 H        1 UNL1     0.1484
     80 H         -2.925808   4.941198   -3.143592 H        1 UNL1     0.0317
     81 H         -3.129587   5.42431   -4.82139 H        1 UNL1     0.0317
     82 H         -5.221173   6.692066   -4.26303 H        1 UNL1     0.0428
     83 H         -3.83634   7.231586   -3.339525 H        1 UNL1     0.0428
     84 H         -6.535008   4.601592   -1.363806 H        1 UNL1     0.0428
     85 H         -6.944305   5.04802   -2.983159 H        1 UNL1     0.0428
     86 H         -5.855913   2.825824   -2.663625 H        1 UNL1     0.0317
     87 H         -4.442661   3.502992   -1.995406 H        1 UNL1     0.0317
     88 H         -6.480927   7.694881   -2.308717 H        1 UNL1     0.0429
     89 H         -6.401068   6.919713   -0.724743 H        1 UNL1     0.0429
     90 H         -5.09519   8.882437   -0.421152 H        1 UNL1     0.0308
     91 H         -2.540565   8.015745   -0.986863 H        1 UNL1     0.0233
     92 H         -3.474914   7.462414   0.426046 H        1 UNL1     0.0233
     93 H         -3.381504   6.47037   -1.013302 H        1 UNL1     0.0233
     94 H         -3.535064   9.770364   -2.136386 H        1 UNL1     0.0233
     95 H         -4.091604   8.508245   -3.246183 H        1 UNL1     0.0233
     96 H         -5.231574   9.741334   -2.659709 H        1 UNL1     0.0233
     97 H         -2.039136   1.321815   -11.82891 H        1 UNL1     0.0280
     98 H         -0.655506   1.101814   -10.792399 H        1 UNL1     0.0280
     99 H         -1.842733   -0.222913   -10.980341 H        1 UNL1     0.0280
     100 H         -4.667558   2.51198   -11.310509 H        1 UNL1     0.2922
     101 H         -4.515843   -2.351509   -2.071224 H        1 UNL1     0.0236
     102 H         -5.990571   -1.97079   -3.043998 H        1 UNL1     0.0236
     103 H         -5.918398   -1.633955   -1.34199 H        1 UNL1     0.0236
     104 H         -3.667433   0.273878   0.618172 H        1 UNL1     0.2098
     105 H         -1.085327   1.214175   -0.598858 H        1 UNL1     0.0234
     106 H         -1.156774   0.599029   1.076727 H        1 UNL1     0.0234
     107 H         0.0   0.0   0.0 H        1 UNL1     0.0234
     108 H         -0.131865   -2.596673   -2.654175 H        1 UNL1     0.2098
     109 H         0.284829   1.137982   -3.363705 H        1 UNL1     0.0234
     110 H         -0.080924   1.102556   -1.609347 H        1 UNL1     0.0234
     111 H         1.252701   2.026805   -2.206048 H        1 UNL1     0.0234
     112 H         2.736496   2.884129   0.023513 H        1 UNL1     0.0342
     113 H         3.899691   2.143882   -1.132883 H        1 UNL1     0.0342
     114 H         2.180734   1.749334   -1.219428 H        1 UNL1     0.0342
     115 H         1.807821   -3.561631   -2.032646 H        1 UNL1     0.0234
     116 H         2.622107   -3.616669   -0.465899 H        1 UNL1     0.0234
     117 H         1.076968   -4.437222   -0.770669 H        1 UNL1     0.0234
     118 H         0.502859   1.295352   -5.697136 H        1 UNL1     0.0309
     119 H         1.119203   0.735624   -7.282975 H        1 UNL1     0.0309
     120 H         -0.021271   2.056555   -7.154074 H        1 UNL1     0.0309
     121 H         2.295032   -3.208894   -1.494435 H        1 UNL1     0.0524
     122 H         1.034809   -1.982443   -1.308664 H        1 UNL1     0.0524
     123 H         0.605251   -3.603015   -1.911132 H        1 UNL1     0.0524
@<TRIPOS>BOND
     1     1     2    1
     2     1    42    1
     3     2     3    2
     4     3     4    1
     5     4     5    2
     6     5     7    1
     7     6    75    1
     8     6    76    1
     9     6    77    1
    10     7     9   am
    11     9    10    1
    12    10    11    2
    13    10    43    1
    14    11    14    1
    15    11    15    1
    16    12    13   ar
    17    12    27   ar
    18    12    43    1
    19    13    14    1
    20    13    30   ar
    21    14    17    2
    22    15    16    1
    23    16    17    1
    24    16    18    1
    25    16    22    1
    26    18    19    1
    27    19    20    1
    28    20    21    1
    29    21    22    1
    30    23    24    1
    31    23    88    1
    32    23    89    1
    33    24    25    1
    34    24    26    1
    35    24    90    1
    36    25    91    1
    37    25    92    1
    38    25    93    1
    39    26    94    1
    40    26    95    1
    41    26    96    1
    42    27    28   ar
    43    28    29   ar
    44    29    30   ar
    45    29    31    1
    46    30    33    1
    47    31    32    1
    48    32    33    1
    49    32    35    1
    50    34    97    1
    51    34    98    1
    52    34    99    1
    53    35    61    1
    54    36    37    1
    55    36    60    1
    56    37    38    1
    57    38    39    1
    58    39    40    1
    59    40    41    1
    60    41    42    1
    61    45   100    1
    62    47   101    1
    63    47   102    1
    64    47   103    1
    65    48   104    1
    66    49   105    1
    67    49   106    1
    68    49   107    1
    69    50   108    1
    70    51    59    1
    71    52   109    1
    72    52   110    1
    73    52   111    1
    74    53    54    1
    75    54    55    2
    76    54    56    1
    77    56   112    1
    78    56   113    1
    79    56   114    1
    80    57   115    1
    81    57   116    1
    82    57   117    1
    83    58   118    1
    84    58   119    1
    85    58   120    1
    86    59   121    1
    87    59   122    1
    88    59   123    1
    89    60    61    2
    90     1    47    1
    91     1    62    1
    92     2    63    1
    93     3    64    1
    94     4    65    1
    95     5     6    1
    96     7     8    2
    97     9    78    1
    98    15    79    1
    99    18    80    1
   100    18    81    1
   101    19    82    1
   102    19    83    1
   103    20    23    1
   104    21    84    1
   105    21    85    1
   106    22    86    1
   107    22    87    1
   108    27    45    1
   109    28    34    1
   110    32    58    1
   111    33    46    2
   112    36    51    1
   113    36    66    1
   114    37    52    1
   115    37    67    1
   116    38    53    1
   117    38    68    1
   118    42    48    1
   119    42    72    1
   120    43    44    2
   121    60    73    1
   122    61    74    1
   123    39    69    1
   124    39    57    1
   125    40    70    1
   126    40    50    1
   127    41    71    1
   128    41    49    1
