@<TRIPOS>MOLECULE
*****
 123 128 0 0 0
SMALL
GASTEIGER

@<TRIPOS>ATOM
     1 C         5.15588   1.785468   0.477779 C.3        1 UNL1     0.0009
     2 C         6.595699   2.57207   -0.385481 C.2        1 UNL1     -0.0787
     3 C         7.883068   2.459639   -1.038234 C.2        1 UNL1     -0.0649
     4 C         8.761145   3.675434   -1.823841 C.2        1 UNL1     -0.0542
     5 C         9.787142   3.944329   -2.763045 C.2        1 UNL1     0.0115
     6 C         10.924579   3.298218   -3.600959 C.3        1 UNL1     -0.0348
     7 C         9.880956   5.409162   -3.413008 C.2        1 UNL1     0.2441
     8 O         10.698466   6.245374   -3.053907 O.2        1 UNL1     -0.2702
     9 N         9.138919   5.577669   -4.595014 N.am        1 UNL1     -0.2772
     10 C         7.85222   5.967918   -4.302721 C.2        1 UNL1     0.1049
     11 C         7.008275   5.001967   -3.988211 C.2        1 UNL1     0.0801
     12 C         6.536298   7.610363   -2.950665 C.ar        1 UNL1     0.0753
     13 C         5.778532   6.493022   -2.475324 C.ar        1 UNL1     0.0305
     14 C         5.905885   5.169106   -3.080369 C.2        1 UNL1     0.0924
     15 N         7.137667   3.669374   -4.106449 N.pl3        1 UNL1     -0.3170
     16 C         5.867938   3.074294   -3.784081 C.3        1 UNL1     0.1275
     17 N         5.220022   4.055634   -2.83809 N.2        1 UNL1     -0.2557
     18 C         5.024612   3.091734   -5.055379 C.3        1 UNL1     0.0016
     19 C         5.791017   2.37748   -6.15722 C.3        1 UNL1     0.0026
     20 N         6.063932   1.012756   -5.728181 N.3        1 UNL1     -0.3018
     21 C         6.81838   0.892915   -4.478855 C.3        1 UNL1     0.0026
     22 C         6.028143   1.613261   -3.384999 C.3        1 UNL1     0.0016
     23 C         6.520394   0.162318   -6.809403 C.3        1 UNL1     0.0012
     24 C         5.372489   -0.125121   -7.789937 C.3        1 UNL1     -0.0339
     25 C         5.398464   0.841732   -8.985169 C.3        1 UNL1     -0.0615
     26 C         5.424203   -1.574198   -8.241911 C.3        1 UNL1     -0.0615
     27 C         6.322193   8.892736   -2.450867 C.ar        1 UNL1     0.1347
     28 C         5.35465   9.186688   -1.506673 C.ar        1 UNL1     0.0342
     29 C         4.654306   8.063457   -1.017761 C.ar        1 UNL1     0.1435
     30 C         4.882988   6.767846   -1.482858 C.ar        1 UNL1     0.0774
     31 O         3.606305   8.197949   -0.175969 O.3        1 UNL1     -0.4436
     32 C         2.890899   6.958258   -0.286561 C.3        1 UNL1     0.3143
     33 C         3.912403   5.954132   -0.781003 C.2        1 UNL1     0.2504
     34 C         4.898729   10.563397   -1.110555 C.3        1 UNL1     -0.0327
     35 O         2.521964   6.559595   1.039413 O.2        1 UNL1     -0.4528
     36 C         -0.709834   4.602125   0.676256 C.3        1 UNL1     0.0854
     37 C         -1.002955   3.313894   -0.185174 C.3        1 UNL1     0.0236
     38 C         -1.604287   2.074386   0.635657 C.3        1 UNL1     0.1131
     39 C         -0.886358   1.585877   1.957854 C.3        1 UNL1     0.0200
     40 C         0.775061   1.448949   2.015941 C.3        1 UNL1     0.0661
     41 C         1.746601   0.649683   0.878007 C.3        1 UNL1     0.0091
     42 C         3.45695   1.002699   0.316323 C.3        1 UNL1     0.0661
     43 C         7.495799   7.373359   -4.057664 C.2        1 UNL1     0.2131
     44 O         7.897447   8.251261   -4.799759 O.2        1 UNL1     -0.2851
     45 O         7.133636   9.91721   -2.934035 O.3        1 UNL1     -0.5056
     46 O         3.93241   4.755138   -0.614071 O.2        1 UNL1     -0.2836
     47 C         5.542952   1.401023   1.931175 C.3        1 UNL1     -0.0566
     48 O         3.910758   -0.403333   0.443789 O.3        1 UNL1     -0.3909
     49 C         0.922959   0.376375   -0.360706 C.3        1 UNL1     -0.0577
     50 O         1.367129   2.680665   2.376571 O.3        1 UNL1     -0.3910
     51 O         -0.843833   4.453681   2.071763 O.3        1 UNL1     -0.3753
     52 C         0.050998   3.123563   -1.324431 C.3        1 UNL1     -0.0564
     53 O         -2.195606   1.006263   -0.237145 O.3        1 UNL1     -0.4608
     54 C         -2.415016   -0.294058   0.13562 C.2        1 UNL1     0.3042
     55 O         -1.835279   -1.297486   -0.277752 O.2        1 UNL1     -0.2512
     56 C         -3.451915   -0.444271   1.212184 C.3        1 UNL1     0.0332
     57 C         -1.619855   2.289181   3.192974 C.3        1 UNL1     -0.0567
     58 C         1.823063   7.166015   -1.385694 C.3        1 UNL1     0.0210
     59 C         -1.198498   5.646335   2.770087 C.3        1 UNL1     0.0372
     60 C         0.61826   5.229861   0.436932 C.2        1 UNL1     -0.0208
     61 C         1.522656   5.694965   1.29977 C.2        1 UNL1     0.0882
     62 H         4.6752   2.76971   0.531881 H        1 UNL1     0.0365
     63 H         6.324254   3.62737   -0.313854 H        1 UNL1     0.0576
     64 H         8.346439   1.488623   -1.226709 H        1 UNL1     0.0615
     65 H         8.267594   4.59866   -1.508334 H        1 UNL1     0.0622
     66 H         -1.455185   5.335736   0.338155 H        1 UNL1     0.0645
     67 H         -1.86506   3.600988   -0.812001 H        1 UNL1     0.0362
     68 H         -2.555849   2.517434   0.966958 H        1 UNL1     0.0741
     69 H         -1.215152   0.57964   2.18099 H        1 UNL1     0.0359
     70 H         0.882811   0.815822   2.917385 H        1 UNL1     0.0600
     71 H         1.791159   -0.358027   1.335711 H        1 UNL1     0.0348
     72 H         3.341503   1.519574   1.28008 H        1 UNL1     0.0602
     73 H         0.743297   5.396473   -0.604151 H        1 UNL1     0.0628
     74 H         1.497764   5.516384   2.375283 H        1 UNL1     0.1022
     75 H         10.972493   2.198228   -3.414517 H        1 UNL1     0.0279
     76 H         10.818898   3.348144   -4.68235 H        1 UNL1     0.0279
     77 H         11.925833   3.616994   -3.276039 H        1 UNL1     0.0279
     78 H         9.084584   4.692118   -5.093936 H        1 UNL1     0.1553
     79 H         7.809443   3.226003   -4.705675 H        1 UNL1     0.1484
     80 H         4.063923   2.602614   -4.853873 H        1 UNL1     0.0317
     81 H         4.795771   4.118892   -5.359073 H        1 UNL1     0.0317
     82 H         6.721335   2.9052   -6.413995 H        1 UNL1     0.0428
     83 H         5.172514   2.40312   -7.05491 H        1 UNL1     0.0428
     84 H         6.940669   -0.139762   -4.137631 H        1 UNL1     0.0428
     85 H         7.847696   1.2622   -4.585881 H        1 UNL1     0.0428
     86 H         6.538611   1.392503   -2.465936 H        1 UNL1     0.0317
     87 H         5.049766   1.135284   -3.25304 H        1 UNL1     0.0317
     88 H         7.316038   0.692867   -7.348627 H        1 UNL1     0.0429
     89 H         6.957043   -0.769233   -6.426878 H        1 UNL1     0.0429
     90 H         4.415801   -0.008398   -7.26712 H        1 UNL1     0.0308
     91 H         6.350872   0.786414   -9.520857 H        1 UNL1     0.0233
     92 H         4.583621   0.620742   -9.678569 H        1 UNL1     0.0233
     93 H         5.265354   1.88671   -8.679986 H        1 UNL1     0.0233
     94 H         4.733772   -1.734215   -9.077097 H        1 UNL1     0.0233
     95 H         6.432254   -1.82267   -8.585505 H        1 UNL1     0.0233
     96 H         5.149717   -2.255066   -7.431328 H        1 UNL1     0.0233
     97 H         4.099942   10.532327   -0.37557 H        1 UNL1     0.0280
     98 H         5.705468   11.150807   -0.652977 H        1 UNL1     0.0280
     99 H         4.529396   11.099949   -1.999825 H        1 UNL1     0.0280
     100 H         6.665972   10.65547   -3.283156 H        1 UNL1     0.2922
     101 H         4.678099   0.978928   2.442566 H        1 UNL1     0.0236
     102 H         5.985905   2.225339   2.489099 H        1 UNL1     0.0236
     103 H         6.302531   0.602018   1.959879 H        1 UNL1     0.0236
     104 H         4.324089   -0.50123   1.323871 H        1 UNL1     0.2098
     105 H         0.710975   1.25667   -0.962333 H        1 UNL1     0.0234
     106 H         1.300664   -0.429329   -0.990076 H        1 UNL1     0.0234
     107 H         0.0   -0.0   0.0 H        1 UNL1     0.0234
     108 H         1.168764   3.317711   1.663414 H        1 UNL1     0.2098
     109 H         1.073346   3.026049   -0.933269 H        1 UNL1     0.0234
     110 H         -0.172762   2.27545   -1.980465 H        1 UNL1     0.0234
     111 H         0.073521   3.986493   -2.003246 H        1 UNL1     0.0234
     112 H         -3.574532   -1.501606   1.465862 H        1 UNL1     0.0342
     113 H         -3.212455   0.144453   2.096438 H        1 UNL1     0.0342
     114 H         -4.410492   -0.078996   0.818648 H        1 UNL1     0.0342
     115 H         -2.683254   2.017748   3.244881 H        1 UNL1     0.0234
     116 H         -1.174614   2.059506   4.163056 H        1 UNL1     0.0234
     117 H         -1.684451   3.386897   3.09922 H        1 UNL1     0.0234
     118 H         0.916822   7.661091   -0.995008 H        1 UNL1     0.0309
     119 H         2.196465   7.729986   -2.246339 H        1 UNL1     0.0309
     120 H         1.441663   6.220033   -1.78539 H        1 UNL1     0.0309
     121 H         -0.397746   6.369113   2.615992 H        1 UNL1     0.0524
     122 H         -2.129421   6.095215   2.385475 H        1 UNL1     0.0524
     123 H         -1.318252   5.439852   3.829859 H        1 UNL1     0.0524
@<TRIPOS>BOND
     1     1     2    1
     2     1    42    1
     3     2     3    2
     4     3     4    1
     5     4     5    2
     6     5     7    1
     7     6    75    1
     8     6    76    1
     9     6    77    1
    10     7     9   am
    11     9    10    1
    12    10    11    2
    13    10    43    1
    14    11    14    1
    15    11    15    1
    16    12    13   ar
    17    12    27   ar
    18    12    43    1
    19    13    14    1
    20    13    30   ar
    21    14    17    2
    22    15    16    1
    23    16    17    1
    24    16    18    1
    25    16    22    1
    26    18    19    1
    27    19    20    1
    28    20    21    1
    29    21    22    1
    30    23    24    1
    31    23    88    1
    32    23    89    1
    33    24    25    1
    34    24    26    1
    35    24    90    1
    36    25    91    1
    37    25    92    1
    38    25    93    1
    39    26    94    1
    40    26    95    1
    41    26    96    1
    42    27    28   ar
    43    28    29   ar
    44    29    30   ar
    45    29    31    1
    46    30    33    1
    47    31    32    1
    48    32    33    1
    49    32    35    1
    50    34    97    1
    51    34    98    1
    52    34    99    1
    53    35    61    1
    54    36    37    1
    55    36    60    1
    56    37    38    1
    57    38    39    1
    58    39    40    1
    59    40    41    1
    60    41    42    1
    61    45   100    1
    62    47   101    1
    63    47   102    1
    64    47   103    1
    65    48   104    1
    66    49   105    1
    67    49   106    1
    68    49   107    1
    69    50   108    1
    70    51    59    1
    71    52   109    1
    72    52   110    1
    73    52   111    1
    74    53    54    1
    75    54    55    2
    76    54    56    1
    77    56   112    1
    78    56   113    1
    79    56   114    1
    80    57   115    1
    81    57   116    1
    82    57   117    1
    83    58   118    1
    84    58   119    1
    85    58   120    1
    86    59   121    1
    87    59   122    1
    88    59   123    1
    89    60    61    2
    90     1    47    1
    91     1    62    1
    92     2    63    1
    93     3    64    1
    94     4    65    1
    95     5     6    1
    96     7     8    2
    97     9    78    1
    98    15    79    1
    99    18    80    1
   100    18    81    1
   101    19    82    1
   102    19    83    1
   103    20    23    1
   104    21    84    1
   105    21    85    1
   106    22    86    1
   107    22    87    1
   108    27    45    1
   109    28    34    1
   110    32    58    1
   111    33    46    2
   112    36    51    1
   113    36    66    1
   114    37    52    1
   115    37    67    1
   116    38    53    1
   117    38    68    1
   118    42    48    1
   119    42    72    1
   120    43    44    2
   121    60    73    1
   122    61    74    1
   123    39    69    1
   124    39    57    1
   125    40    70    1
   126    40    50    1
   127    41    71    1
   128    41    49    1
