@<TRIPOS>MOLECULE
*****
 123 128 0 0 0
SMALL
GASTEIGER

@<TRIPOS>ATOM
     1 C         -3.086058   -1.5371   3.553495 C.3        1 UNL1     0.0009
     2 C         -4.888081   -1.963626   3.641957 C.2        1 UNL1     -0.0787
     3 C         -6.217173   -1.701933   4.152916 C.2        1 UNL1     -0.0649
     4 C         -7.665624   -2.467313   3.72567 C.2        1 UNL1     -0.0542
     5 C         -9.078268   -2.360066   3.721902 C.2        1 UNL1     0.0115
     6 C         -10.276838   -1.529202   4.25708 C.3        1 UNL1     -0.0348
     7 C         -9.926929   -3.31067   2.745625 C.2        1 UNL1     0.2441
     8 O         -10.517865   -4.308021   3.136282 O.2        1 UNL1     -0.2702
     9 N         -10.162243   -2.780229   1.465231 N.am        1 UNL1     -0.2772
     10 C         -9.129894   -3.102829   0.61464 C.2        1 UNL1     0.1049
     11 C         -8.064964   -2.32368   0.670078 C.2        1 UNL1     0.0801
     12 C         -7.731578   -5.023391   -0.168616 C.ar        1 UNL1     0.0753
     13 C         -6.591033   -4.204062   0.107912 C.ar        1 UNL1     0.0305
     14 C         -6.726584   -2.781262   0.411749 C.2        1 UNL1     0.0924
     15 N         -7.895212   -1.134376   1.272796 N.pl3        1 UNL1     -0.3170
     16 C         -6.605789   -0.62605   0.886469 C.3        1 UNL1     0.1275
     17 N         -5.785872   -1.858834   0.593723 N.2        1 UNL1     -0.2557
     18 C         -6.78384   0.090955   -0.448411 C.3        1 UNL1     0.0016
     19 C         -7.856619   1.156448   -0.288854 C.3        1 UNL1     0.0026
     20 N         -7.442084   2.08519   0.75356 N.3        1 UNL1     -0.3018
     21 C         -7.186185   1.478063   2.061337 C.3        1 UNL1     0.0026
     22 C         -6.10238   0.414197   1.878444 C.3        1 UNL1     0.0016
     23 C         -8.238759   3.295672   0.779774 C.3        1 UNL1     0.0012
     24 C         -9.425931   3.180232   -0.189273 C.3        1 UNL1     -0.0339
     25 C         -9.158029   3.938621   -1.499667 C.3        1 UNL1     -0.0615
     26 C         -9.748856   1.718421   -0.445415 C.3        1 UNL1     -0.0615
     27 C         -7.58734   -6.347766   -0.575241 C.ar        1 UNL1     0.1347
     28 C         -6.357921   -6.948978   -0.77803 C.ar        1 UNL1     0.0342
     29 C         -5.249727   -6.138331   -0.452572 C.ar        1 UNL1     0.1435
     30 C         -5.379633   -4.82151   -0.009485 C.ar        1 UNL1     0.0774
     31 O         -3.984472   -6.541828   -0.700213 O.3        1 UNL1     -0.4436
     32 C         -3.210646   -5.33268   -0.695053 C.3        1 UNL1     0.3143
     33 C         -4.017703   -4.349368   0.128336 C.2        1 UNL1     0.2504
     34 C         -6.124256   -8.273617   -1.449471 C.3        1 UNL1     -0.0327
     35 O         -2.007472   -5.600061   0.035792 O.2        1 UNL1     -0.4528
     36 C         0.646521   -3.339881   -1.466205 C.3        1 UNL1     0.0854
     37 C         0.651513   -1.769463   -1.612104 C.3        1 UNL1     0.0236
     38 C         1.923974   -1.035023   -0.969309 C.3        1 UNL1     0.1131
     39 C         2.346224   -1.356468   0.520875 C.3        1 UNL1     0.0200
     40 C         1.192329   -1.471044   1.719972 C.3        1 UNL1     0.0661
     41 C         -0.032659   -0.339698   2.031536 C.3        1 UNL1     0.0091
     42 C         -1.735119   -0.57541   2.672998 C.3        1 UNL1     0.0661
     43 C         -9.071428   -4.389695   -0.094523 C.2        1 UNL1     0.2131
     44 O         -10.055353   -4.827424   -0.662875 O.2        1 UNL1     -0.2851
     45 O         -8.748727   -7.089893   -0.779852 O.3        1 UNL1     -0.5056
     46 O         -3.622861   -3.402627   0.77148 O.2        1 UNL1     -0.2836
     47 C         -2.364236   -1.972404   4.85713 C.3        1 UNL1     -0.0566
     48 O         -1.632155   0.515823   3.67186 O.3        1 UNL1     -0.3909
     49 C         -0.13084   0.608971   0.857703 C.3        1 UNL1     -0.0577
     50 O         0.667929   -2.781845   1.787253 O.3        1 UNL1     -0.3910
     51 O         1.656284   -3.88576   -0.647777 O.3        1 UNL1     -0.3753
     52 C         -0.790046   -1.171558   -1.51533 C.3        1 UNL1     -0.0564
     53 O         2.085718   0.38817   -1.41729 O.3        1 UNL1     -0.4608
     54 C         3.269649   0.980759   -1.770948 C.2        1 UNL1     0.3042
     55 O         3.572193   1.448811   -2.867867 O.2        1 UNL1     -0.2512
     56 C         4.248402   1.092884   -0.636847 C.3        1 UNL1     0.0332
     57 C         3.480917   -2.482476   0.468419 C.3        1 UNL1     -0.0567
     58 C         -3.163859   -4.837052   -2.159189 C.3        1 UNL1     0.0210
     59 C         2.0289   -5.225235   -0.96845 C.3        1 UNL1     0.0372
     60 C         -0.642288   -3.924526   -1.005419 C.2        1 UNL1     -0.0208
     61 C         -0.887652   -4.862275   -0.089358 C.2        1 UNL1     0.0882
     62 H         -2.948254   -2.351866   2.832469 H        1 UNL1     0.0365
     63 H         -4.911681   -2.873855   3.039133 H        1 UNL1     0.0576
     64 H         -6.429658   -0.829981   4.775538 H        1 UNL1     0.0615
     65 H         -7.339238   -3.357255   3.180731 H        1 UNL1     0.0622
     66 H         0.797867   -3.712597   -2.489056 H        1 UNL1     0.0645
     67 H         0.821933   -1.60087   -2.689644 H        1 UNL1     0.0362
     68 H         2.720173   -1.463432   -1.597048 H        1 UNL1     0.0741
     69 H         2.984373   -0.560624   0.881162 H        1 UNL1     0.0359
     70 H         1.838046   -1.385187   2.614812 H        1 UNL1     0.0600
     71 H         0.477335   0.295654   2.781997 H        1 UNL1     0.0348
     72 H         -1.178508   -1.482583   2.949649 H        1 UNL1     0.0602
     73 H         -1.428302   -3.568436   -1.623989 H        1 UNL1     0.0628
     74 H         -0.150895   -5.237368   0.621789 H        1 UNL1     0.1022
     75 H         -10.164875   -1.339939   5.351922 H        1 UNL1     0.0279
     76 H         -10.388236   -0.524383   3.855835 H        1 UNL1     0.0279
     77 H         -11.225671   -2.084745   4.229021 H        1 UNL1     0.0279
     78 H         -10.208984   -1.764844   1.518944 H        1 UNL1     0.1553
     79 H         -8.652664   -0.538908   1.553182 H        1 UNL1     0.1484
     80 H         -5.824888   0.529979   -0.749134 H        1 UNL1     0.0317
     81 H         -7.066533   -0.614694   -1.236951 H        1 UNL1     0.0317
     82 H         -8.837582   0.715261   -0.058686 H        1 UNL1     0.0428
     83 H         -7.968765   1.654095   -1.252608 H        1 UNL1     0.0428
     84 H         -6.800036   2.182965   2.804177 H        1 UNL1     0.0428
     85 H         -8.106127   1.087026   2.517533 H        1 UNL1     0.0428
     86 H         -5.84754   0.087126   2.869438 H        1 UNL1     0.0317
     87 H         -5.176737   0.880191   1.519096 H        1 UNL1     0.0317
     88 H         -8.629652   3.425299   1.797465 H        1 UNL1     0.0429
     89 H         -7.628378   4.179719   0.554671 H        1 UNL1     0.0429
     90 H         -10.318712   3.605698   0.284154 H        1 UNL1     0.0308
     91 H         -8.132841   4.319053   -1.536572 H        1 UNL1     0.0233
     92 H         -9.331822   3.291788   -2.362808 H        1 UNL1     0.0233
     93 H         -9.822472   4.802004   -1.625845 H        1 UNL1     0.0233
     94 H         -9.588877   1.475704   -1.501507 H        1 UNL1     0.0233
     95 H         -9.090428   1.080325   0.150628 H        1 UNL1     0.0233
     96 H         -10.787504   1.48878   -0.191554 H        1 UNL1     0.0233
     97 H         -5.067224   -8.476717   -1.593228 H        1 UNL1     0.0280
     98 H         -6.513576   -9.112104   -0.857335 H        1 UNL1     0.0280
     99 H         -6.614468   -8.278478   -2.436771 H        1 UNL1     0.0280
     100 H         -9.458611   -6.607601   -1.165962 H        1 UNL1     0.2922
     101 H         -1.786776   -2.878065   4.672803 H        1 UNL1     0.0236
     102 H         -3.039871   -2.083534   5.704567 H        1 UNL1     0.0236
     103 H         -1.620073   -1.228244   5.186736 H        1 UNL1     0.0236
     104 H         -1.446419   0.105357   4.539034 H        1 UNL1     0.2098
     105 H         -1.090314   1.111699   0.76559 H        1 UNL1     0.0234
     106 H         0.682397   1.331131   0.786591 H        1 UNL1     0.0234
     107 H         0.0   0.0   0.0 H        1 UNL1     0.0234
     108 H         -0.298172   -2.702069   1.905796 H        1 UNL1     0.2098
     109 H         -1.420038   -1.718414   -0.799949 H        1 UNL1     0.0234
     110 H         -0.797696   -0.104292   -1.269101 H        1 UNL1     0.0234
     111 H         -1.316441   -1.226541   -2.477531 H        1 UNL1     0.0234
     112 H         4.677563   2.099181   -0.61375 H        1 UNL1     0.0342
     113 H         3.796474   0.838791   0.320777 H        1 UNL1     0.0342
     114 H         5.066331   0.382009   -0.817987 H        1 UNL1     0.0342
     115 H         3.837271   -2.750268   1.472653 H        1 UNL1     0.0234
     116 H         3.16881   -3.404552   -0.025966 H        1 UNL1     0.0234
     117 H         4.417215   -2.141722   -0.006106 H        1 UNL1     0.0234
     118 H         -2.178819   -5.013893   -2.625482 H        1 UNL1     0.0309
     119 H         -3.942519   -5.280411   -2.787937 H        1 UNL1     0.0309
     120 H         -3.290318   -3.751877   -2.239872 H        1 UNL1     0.0309
     121 H         1.464788   -5.889865   -0.314692 H        1 UNL1     0.0524
     122 H         1.778259   -5.491555   -2.008782 H        1 UNL1     0.0524
     123 H         3.095241   -5.365527   -0.815711 H        1 UNL1     0.0524
@<TRIPOS>BOND
     1     1     2    1
     2     1    42    1
     3     2     3    2
     4     3     4    1
     5     4     5    2
     6     5     7    1
     7     6    75    1
     8     6    76    1
     9     6    77    1
    10     7     9   am
    11     9    10    1
    12    10    11    2
    13    10    43    1
    14    11    14    1
    15    11    15    1
    16    12    13   ar
    17    12    27   ar
    18    12    43    1
    19    13    14    1
    20    13    30   ar
    21    14    17    2
    22    15    16    1
    23    16    17    1
    24    16    18    1
    25    16    22    1
    26    18    19    1
    27    19    20    1
    28    20    21    1
    29    21    22    1
    30    23    24    1
    31    23    88    1
    32    23    89    1
    33    24    25    1
    34    24    26    1
    35    24    90    1
    36    25    91    1
    37    25    92    1
    38    25    93    1
    39    26    94    1
    40    26    95    1
    41    26    96    1
    42    27    28   ar
    43    28    29   ar
    44    29    30   ar
    45    29    31    1
    46    30    33    1
    47    31    32    1
    48    32    33    1
    49    32    35    1
    50    34    97    1
    51    34    98    1
    52    34    99    1
    53    35    61    1
    54    36    37    1
    55    36    60    1
    56    37    38    1
    57    38    39    1
    58    39    40    1
    59    40    41    1
    60    41    42    1
    61    45   100    1
    62    47   101    1
    63    47   102    1
    64    47   103    1
    65    48   104    1
    66    49   105    1
    67    49   106    1
    68    49   107    1
    69    50   108    1
    70    51    59    1
    71    52   109    1
    72    52   110    1
    73    52   111    1
    74    53    54    1
    75    54    55    2
    76    54    56    1
    77    56   112    1
    78    56   113    1
    79    56   114    1
    80    57   115    1
    81    57   116    1
    82    57   117    1
    83    58   118    1
    84    58   119    1
    85    58   120    1
    86    59   121    1
    87    59   122    1
    88    59   123    1
    89    60    61    2
    90     1    47    1
    91     1    62    1
    92     2    63    1
    93     3    64    1
    94     4    65    1
    95     5     6    1
    96     7     8    2
    97     9    78    1
    98    15    79    1
    99    18    80    1
   100    18    81    1
   101    19    82    1
   102    19    83    1
   103    20    23    1
   104    21    84    1
   105    21    85    1
   106    22    86    1
   107    22    87    1
   108    27    45    1
   109    28    34    1
   110    32    58    1
   111    33    46    2
   112    36    51    1
   113    36    66    1
   114    37    52    1
   115    37    67    1
   116    38    53    1
   117    38    68    1
   118    42    48    1
   119    42    72    1
   120    43    44    2
   121    60    73    1
   122    61    74    1
   123    39    69    1
   124    39    57    1
   125    40    70    1
   126    40    50    1
   127    41    71    1
   128    41    49    1
