@<TRIPOS>MOLECULE
*****
 123 128 0 0 0
SMALL
GASTEIGER

@<TRIPOS>ATOM
     1 C         1.754399   1.887515   -4.809447 C.3        1 UNL1     0.0009
     2 C         3.111803   1.789442   -6.068365 C.2        1 UNL1     -0.0787
     3 C         4.266722   2.372444   -6.718224 C.2        1 UNL1     -0.0649
     4 C         5.283703   1.659429   -7.868753 C.2        1 UNL1     -0.0542
     5 C         6.559057   1.713255   -8.483287 C.2        1 UNL1     0.0115
     6 C         7.84618   2.569955   -8.633957 C.3        1 UNL1     -0.0348
     7 C         7.09699   0.42204   -9.27093 C.2        1 UNL1     0.2441
     8 O         7.082424   0.332881   -10.490915 O.2        1 UNL1     -0.2702
     9 N         7.823866   -0.487737   -8.48346 N.am        1 UNL1     -0.2772
     10 C         6.976392   -1.400052   -7.897977 C.2        1 UNL1     0.1049
     11 C         6.382432   -1.011411   -6.784248 C.2        1 UNL1     0.0801
     12 C         5.090999   -2.964497   -8.403088 C.ar        1 UNL1     0.0753
     13 C         4.399259   -2.360452   -7.305257 C.ar        1 UNL1     0.0305
     14 C         5.076121   -1.45519   -6.379293 C.2        1 UNL1     0.0924
     15 N         6.623739   0.055797   -6.003629 N.pl3        1 UNL1     -0.3170
     16 C         5.814838   -0.073163   -4.820707 C.3        1 UNL1     0.1275
     17 N         4.62476   -0.888692   -5.26382 N.2        1 UNL1     -0.2557
     18 C         6.586533   -0.949246   -3.838533 C.3        1 UNL1     0.0016
     19 C         7.952499   -0.325652   -3.600087 C.3        1 UNL1     0.0026
     20 N         7.76716   1.018036   -3.069821 N.3        1 UNL1     -0.3018
     21 C         6.982407   1.918131   -3.917383 C.3        1 UNL1     0.0026
     22 C         5.612838   1.274279   -4.140161 C.3        1 UNL1     0.0016
     23 C         8.987261   1.584726   -2.530508 C.3        1 UNL1     0.0012
     24 C         10.183022   0.664055   -2.820813 C.3        1 UNL1     -0.0339
     25 C         11.131369   0.576444   -1.613742 C.3        1 UNL1     -0.0615
     26 C         9.692025   -0.708641   -3.246733 C.3        1 UNL1     -0.0615
     27 C         4.473162   -3.918172   -9.208633 C.ar        1 UNL1     0.1347
     28 C         3.185643   -4.375273   -8.99091 C.ar        1 UNL1     0.0342
     29 C         2.507153   -3.731033   -7.93461 C.ar        1 UNL1     0.1435
     30 C         3.100992   -2.748147   -7.141823 C.ar        1 UNL1     0.0774
     31 O         1.285815   -4.140712   -7.52779 O.3        1 UNL1     -0.4436
     32 C         1.145736   -3.604094   -6.203671 C.3        1 UNL1     0.3143
     33 C         2.095045   -2.424116   -6.151955 C.2        1 UNL1     0.2504
     34 C         2.549668   -5.566904   -9.650949 C.3        1 UNL1     -0.0327
     35 O         -0.182096   -3.0763   -6.096211 O.2        1 UNL1     -0.4528
     36 C         -1.152362   -3.435609   -2.444147 C.3        1 UNL1     0.0854
     37 C         -0.431152   -2.868606   -1.161226 C.3        1 UNL1     0.0236
     38 C         -1.357458   -1.975049   -0.204536 C.3        1 UNL1     0.1131
     39 C         -2.201815   -0.785739   -0.816805 C.3        1 UNL1     0.0200
     40 C         -1.520102   0.245371   -1.936858 C.3        1 UNL1     0.0661
     41 C         -0.027111   1.035428   -1.780661 C.3        1 UNL1     0.0091
     42 C         1.203367   1.516867   -3.053274 C.3        1 UNL1     0.0661
     43 C         6.517778   -2.60751   -8.60088 C.2        1 UNL1     0.2131
     44 O         7.307523   -3.304499   -9.211818 O.2        1 UNL1     -0.2851
     45 O         5.200857   -4.423348   -10.284131 O.3        1 UNL1     -0.5056
     46 O         2.024713   -1.429984   -5.464488 O.2        1 UNL1     -0.2836
     47 C         0.641606   2.857091   -5.290692 C.3        1 UNL1     -0.0566
     48 O         1.370181   2.89584   -2.533927 O.3        1 UNL1     -0.3909
     49 C         0.741095   0.406008   -0.639966 C.3        1 UNL1     -0.0577
     50 O         -1.657864   -0.273202   -3.244461 O.3        1 UNL1     -0.3910
     51 O         -2.454746   -2.951782   -2.683183 O.3        1 UNL1     -0.3753
     52 C         1.063087   -2.506513   -1.445984 C.3        1 UNL1     -0.0564
     53 O         -0.769297   -1.745138   1.15691 O.3        1 UNL1     -0.4608
     54 C         -1.154442   -0.765504   2.034354 C.2        1 UNL1     0.3042
     55 O         -0.457032   0.132727   2.504075 O.2        1 UNL1     -0.2512
     56 C         -2.614986   -0.810643   2.382905 C.3        1 UNL1     0.0332
     57 C         -3.67239   -1.340692   -1.112795 C.3        1 UNL1     -0.0567
     58 C         1.653587   -4.695851   -5.233266 C.3        1 UNL1     0.0210
     59 C         -3.04071   -2.243481   -1.591935 C.3        1 UNL1     0.0372
     60 C         -0.394433   -3.273857   -3.714793 C.2        1 UNL1     -0.0208
     61 C         -0.801296   -2.868188   -4.918388 C.2        1 UNL1     0.0882
     62 H         1.437766   0.878649   -5.100385 H        1 UNL1     0.0365
     63 H         2.866647   0.845145   -6.558947 H        1 UNL1     0.0576
     64 H         4.695627   3.319068   -6.381993 H        1 UNL1     0.0615
     65 H         4.730411   0.773635   -8.192357 H        1 UNL1     0.0622
     66 H         -1.217778   -4.518553   -2.268082 H        1 UNL1     0.0645
     67 H         -0.262056   -3.760168   -0.53267 H        1 UNL1     0.0362
     68 H         -2.096662   -2.733136   0.096137 H        1 UNL1     0.0741
     69 H         -2.486341   -0.113694   -0.018175 H        1 UNL1     0.0359
     70 H         -2.244802   1.080795   -1.892839 H        1 UNL1     0.0600
     71 H         -0.359004   1.986569   -1.320081 H        1 UNL1     0.0348
     72 H         0.257358   1.357883   -3.590961 H        1 UNL1     0.0602
     73 H         0.584832   -3.664477   -3.589484 H        1 UNL1     0.0628
     74 H         -1.767012   -2.402741   -5.118365 H        1 UNL1     0.1022
     75 H         7.591336   3.656403   -8.67543 H        1 UNL1     0.0279
     76 H         8.556475   2.527185   -7.811326 H        1 UNL1     0.0279
     77 H         8.341413   2.426201   -9.605441 H        1 UNL1     0.0279
     78 H         8.300231   0.011837   -7.735409 H        1 UNL1     0.1553
     79 H         7.481231   0.576671   -6.021809 H        1 UNL1     0.1484
     80 H         6.014864   -1.030074   -2.906102 H        1 UNL1     0.0317
     81 H         6.698537   -1.967271   -4.226775 H        1 UNL1     0.0317
     82 H         8.558231   -0.308843   -4.518085 H        1 UNL1     0.0428
     83 H         8.486567   -0.967168   -2.898463 H        1 UNL1     0.0428
     84 H         6.790494   2.894184   -3.460983 H        1 UNL1     0.0428
     85 H         7.506321   2.159297   -4.85262 H        1 UNL1     0.0428
     86 H         5.023906   2.015021   -4.648539 H        1 UNL1     0.0317
     87 H         5.095211   1.15314   -3.180742 H        1 UNL1     0.0317
     88 H         9.162061   2.550347   -3.022763 H        1 UNL1     0.0429
     89 H         8.893006   1.784256   -1.455298 H        1 UNL1     0.0429
     90 H         10.742431   1.060805   -3.676304 H        1 UNL1     0.0308
     91 H         11.637906   1.529802   -1.435892 H        1 UNL1     0.0233
     92 H         10.584637   0.287332   -0.713127 H        1 UNL1     0.0233
     93 H         11.914418   -0.178939   -1.751816 H        1 UNL1     0.0233
     94 H         10.538447   -1.395149   -3.356796 H        1 UNL1     0.0233
     95 H         9.022211   -1.118609   -2.485657 H        1 UNL1     0.0233
     96 H         9.157659   -0.663303   -4.199816 H        1 UNL1     0.0233
     97 H         1.832143   -6.058239   -9.000582 H        1 UNL1     0.0280
     98 H         1.994343   -5.290841   -10.556852 H        1 UNL1     0.0280
     99 H         3.328633   -6.298512   -9.921242 H        1 UNL1     0.0280
     100 H         6.097853   -4.140641   -10.317238 H        1 UNL1     0.2922
     101 H         -0.240287   2.288002   -5.58405 H        1 UNL1     0.0236
     102 H         0.973032   3.532781   -6.078463 H        1 UNL1     0.0236
     103 H         0.290949   3.519321   -4.481567 H        1 UNL1     0.0236
     104 H         0.566272   3.399017   -2.769541 H        1 UNL1     0.2098
     105 H         1.403629   -0.403045   -0.937106 H        1 UNL1     0.0234
     106 H         1.271217   1.113689   -0.002717 H        1 UNL1     0.0234
     107 H         0.0   0.0   0.0 H        1 UNL1     0.0234
     108 H         -2.560498   -0.638738   -3.317971 H        1 UNL1     0.2098
     109 H         1.191034   -1.448196   -1.713017 H        1 UNL1     0.0234
     110 H         1.732631   -2.758676   -0.616606 H        1 UNL1     0.0234
     111 H         1.463332   -3.077592   -2.294287 H        1 UNL1     0.0234
     112 H         -3.140835   -1.481273   1.69655 H        1 UNL1     0.0342
     113 H         -2.779992   -1.10376   3.418617 H        1 UNL1     0.0342
     114 H         -3.03023   0.198154   2.252268 H        1 UNL1     0.0342
     115 H         -4.212326   -0.705333   -1.82832 H        1 UNL1     0.0234
     116 H         -3.69213   -2.361347   -1.499994 H        1 UNL1     0.0234
     117 H         -4.34405   -1.295148   -0.238302 H        1 UNL1     0.0234
     118 H         2.496346   -5.268762   -5.658159 H        1 UNL1     0.0309
     119 H         1.946624   -4.299407   -4.255941 H        1 UNL1     0.0309
     120 H         0.89967   -5.465443   -5.034661 H        1 UNL1     0.0309
     121 H         -2.344022   -1.45988   -1.295371 H        1 UNL1     0.0524
     122 H         -3.989614   -1.755859   -1.87094 H        1 UNL1     0.0524
     123 H         -3.222248   -2.918136   -0.760082 H        1 UNL1     0.0524
@<TRIPOS>BOND
     1     1     2    1
     2     1    42    1
     3     2     3    2
     4     3     4    1
     5     4     5    2
     6     5     7    1
     7     6    75    1
     8     6    76    1
     9     6    77    1
    10     7     9   am
    11     9    10    1
    12    10    11    2
    13    10    43    1
    14    11    14    1
    15    11    15    1
    16    12    13   ar
    17    12    27   ar
    18    12    43    1
    19    13    14    1
    20    13    30   ar
    21    14    17    2
    22    15    16    1
    23    16    17    1
    24    16    18    1
    25    16    22    1
    26    18    19    1
    27    19    20    1
    28    20    21    1
    29    21    22    1
    30    23    24    1
    31    23    88    1
    32    23    89    1
    33    24    25    1
    34    24    26    1
    35    24    90    1
    36    25    91    1
    37    25    92    1
    38    25    93    1
    39    26    94    1
    40    26    95    1
    41    26    96    1
    42    27    28   ar
    43    28    29   ar
    44    29    30   ar
    45    29    31    1
    46    30    33    1
    47    31    32    1
    48    32    33    1
    49    32    35    1
    50    34    97    1
    51    34    98    1
    52    34    99    1
    53    35    61    1
    54    36    37    1
    55    36    60    1
    56    37    38    1
    57    38    39    1
    58    39    40    1
    59    40    41    1
    60    41    42    1
    61    45   100    1
    62    47   101    1
    63    47   102    1
    64    47   103    1
    65    48   104    1
    66    49   105    1
    67    49   106    1
    68    49   107    1
    69    50   108    1
    70    51    59    1
    71    52   109    1
    72    52   110    1
    73    52   111    1
    74    53    54    1
    75    54    55    2
    76    54    56    1
    77    56   112    1
    78    56   113    1
    79    56   114    1
    80    57   115    1
    81    57   116    1
    82    57   117    1
    83    58   118    1
    84    58   119    1
    85    58   120    1
    86    59   121    1
    87    59   122    1
    88    59   123    1
    89    60    61    2
    90     1    47    1
    91     1    62    1
    92     2    63    1
    93     3    64    1
    94     4    65    1
    95     5     6    1
    96     7     8    2
    97     9    78    1
    98    15    79    1
    99    18    80    1
   100    18    81    1
   101    19    82    1
   102    19    83    1
   103    20    23    1
   104    21    84    1
   105    21    85    1
   106    22    86    1
   107    22    87    1
   108    27    45    1
   109    28    34    1
   110    32    58    1
   111    33    46    2
   112    36    51    1
   113    36    66    1
   114    37    52    1
   115    37    67    1
   116    38    53    1
   117    38    68    1
   118    42    48    1
   119    42    72    1
   120    43    44    2
   121    60    73    1
   122    61    74    1
   123    39    69    1
   124    39    57    1
   125    40    70    1
   126    40    50    1
   127    41    71    1
   128    41    49    1
