@<TRIPOS>MOLECULE
*****
 123 128 0 0 0
SMALL
GASTEIGER

@<TRIPOS>ATOM
     1 C         -3.558365   1.379484   -3.291679 C.3        1 UNL1     0.0009
     2 C         -3.72389   1.477902   -5.135575 C.2        1 UNL1     -0.0787
     3 C         -3.904168   2.259958   -6.340538 C.2        1 UNL1     -0.0649
     4 C         -3.851318   1.724952   -7.945945 C.2        1 UNL1     -0.0542
     5 C         -3.679449   2.118754   -9.29593 C.2        1 UNL1     0.0115
     6 C         -3.580063   3.345207   -10.244223 C.3        1 UNL1     -0.0348
     7 C         -3.315934   1.002266   -10.390598 C.2        1 UNL1     0.2441
     8 O         -4.139307   0.539961   -11.168323 O.2        1 UNL1     -0.2702
     9 N         -1.93954   0.781224   -10.571796 N.am        1 UNL1     -0.2772
     10 C         -1.485704   -0.171004   -9.688271 C.2        1 UNL1     0.1049
     11 C         -1.190673   0.255526   -8.473672 C.2        1 UNL1     0.0801
     12 C         -1.987207   -2.457127   -8.805395 C.ar        1 UNL1     0.0753
     13 C         -1.860785   -1.893657   -7.495766 C.ar        1 UNL1     0.0305
     14 C         -1.328767   -0.548471   -7.289655 C.2        1 UNL1     0.0924
     15 N         -1.059243   1.508916   -8.006482 N.pl3        1 UNL1     -0.3170
     16 C         -0.560434   1.425709   -6.65944 C.3        1 UNL1     0.1275
     17 N         -1.051629   0.09025   -6.156448 N.2        1 UNL1     -0.2557
     18 C         0.958617   1.312987   -6.745931 C.3        1 UNL1     0.0016
     19 C         1.489622   2.495764   -7.540072 C.3        1 UNL1     0.0026
     20 N         1.092872   3.72584   -6.868856 N.3        1 UNL1     -0.3018
     21 C         -0.349769   3.895427   -6.683393 C.3        1 UNL1     0.0026
     22 C         -0.861264   2.698775   -5.879471 C.3        1 UNL1     0.0016
     23 C         1.792638   4.892277   -7.369249 C.3        1 UNL1     0.0012
     24 C         3.269959   4.856248   -6.947369 C.3        1 UNL1     -0.0339
     25 C         3.768765   3.412864   -6.768791 C.3        1 UNL1     -0.0615
     26 C         4.116763   5.620263   -7.950356 C.3        1 UNL1     -0.0615
     27 C         -2.380461   -3.780993   -8.986635 C.ar        1 UNL1     0.1347
     28 C         -2.634667   -4.646737   -7.937866 C.ar        1 UNL1     0.0342
     29 C         -2.551302   -4.05641   -6.65891 C.ar        1 UNL1     0.1435
     30 C         -2.193726   -2.721821   -6.463385 C.ar        1 UNL1     0.0774
     31 O         -2.663146   -4.794864   -5.533218 O.3        1 UNL1     -0.4436
     32 C         -2.06915   -3.984831   -4.507601 C.3        1 UNL1     0.3143
     33 C         -2.15792   -2.56317   -5.024526 C.2        1 UNL1     0.2504
     34 C         -2.813944   -6.135372   -8.047069 C.3        1 UNL1     -0.0327
     35 O         -2.918964   -4.064061   -3.356606 O.2        1 UNL1     -0.4528
     36 C         -0.640807   -3.641849   -0.349975 C.3        1 UNL1     0.0854
     37 C         0.336156   -2.45442   0.000847 C.3        1 UNL1     0.0236
     38 C         0.100224   -1.78787   1.440219 C.3        1 UNL1     0.1131
     39 C         -1.352068   -1.324094   1.862157 C.3        1 UNL1     0.0200
     40 C         -2.32556   -0.507559   0.781406 C.3        1 UNL1     0.0661
     41 C         -1.873711   0.844946   -0.137383 C.3        1 UNL1     0.0091
     42 C         -2.404775   1.378438   -1.810332 C.3        1 UNL1     0.0661
     43 C         -1.599228   -1.611429   -9.961477 C.2        1 UNL1     0.2131
     44 O         -1.286336   -2.060739   -11.049116 O.2        1 UNL1     -0.2851
     45 O         -2.523244   -4.238173   -10.295084 O.3        1 UNL1     -0.5056
     46 O         -2.209962   -1.532835   -4.390842 O.2        1 UNL1     -0.2836
     47 C         -4.94032   1.583586   -2.614534 C.3        1 UNL1     -0.0566
     48 O         -2.652313   2.784118   -1.407957 O.3        1 UNL1     -0.3909
     49 C         -0.369153   0.990019   -0.084894 C.3        1 UNL1     -0.0577
     50 O         -3.054893   -1.414638   -0.020469 O.3        1 UNL1     -0.3910
     51 O         -1.700368   -3.855728   0.555021 O.3        1 UNL1     -0.3753
     52 C         0.693641   -1.602946   -1.260956 C.3        1 UNL1     -0.0564
     53 O         1.236961   -0.919047   1.893321 O.3        1 UNL1     -0.4608
     54 C         1.112208   0.25358   2.591398 C.2        1 UNL1     0.3042
     55 O         1.561621   0.509614   3.707782 O.2        1 UNL1     -0.2512
     56 C         0.383   1.328268   1.836404 C.3        1 UNL1     0.0332
     57 C         -2.010296   -2.510667   2.708888 C.3        1 UNL1     -0.0567
     58 C         -0.580337   -4.396339   -4.4326 C.3        1 UNL1     0.0210
     59 C         -1.57082   -5.023639   1.364383 C.3        1 UNL1     0.0372
     60 C         -1.24341   -3.579652   -1.709446 C.2        1 UNL1     -0.0208
     61 C         -2.499973   -3.781823   -2.108096 C.2        1 UNL1     0.0882
     62 H         -3.410987   0.296503   -3.381917 H        1 UNL1     0.0365
     63 H         -3.714607   0.417863   -5.397683 H        1 UNL1     0.0576
     64 H         -3.932401   3.351602   -6.315569 H        1 UNL1     0.0615
     65 H         -3.90664   0.636372   -7.859824 H        1 UNL1     0.0622
     66 H         -0.001661   -4.536001   -0.34431 H        1 UNL1     0.0645
     67 H         1.314372   -2.945482   0.144067 H        1 UNL1     0.0362
     68 H         0.328788   -2.651856   2.082721 H        1 UNL1     0.0741
     69 H         -1.269148   -0.623756   2.682559 H        1 UNL1     0.0359
     70 H         -3.076335   -0.089668   1.479091 H        1 UNL1     0.0600
     71 H         -2.193986   1.657322   0.544105 H        1 UNL1     0.0348
     72 H         -3.173433   0.675341   -1.458005 H        1 UNL1     0.0602
     73 H         -0.471582   -3.458627   -2.428392 H        1 UNL1     0.0628
     74 H         -3.355603   -3.85673   -1.436142 H        1 UNL1     0.1022
     75 H         -3.592048   4.29577   -9.658289 H        1 UNL1     0.0279
     76 H         -2.663674   3.438147   -10.822722 H        1 UNL1     0.0279
     77 H         -4.472438   3.468253   -10.875276 H        1 UNL1     0.0279
     78 H         -1.427572   1.640972   -10.385246 H        1 UNL1     0.1553
     79 H         -0.909805   2.309185   -8.593143 H        1 UNL1     0.1484
     80 H         1.374   1.293014   -5.731128 H        1 UNL1     0.0317
     81 H         1.254642   0.373227   -7.224336 H        1 UNL1     0.0317
     82 H         1.133687   2.480181   -8.580736 H        1 UNL1     0.0428
     83 H         2.574158   2.394625   -7.591076 H        1 UNL1     0.0428
     84 H         -0.616122   4.786917   -6.1071 H        1 UNL1     0.0428
     85 H         -0.871865   4.030736   -7.640693 H        1 UNL1     0.0428
     86 H         -1.886759   2.921361   -5.649681 H        1 UNL1     0.0317
     87 H         -0.379639   2.675782   -4.894278 H        1 UNL1     0.0317
     88 H         1.741847   4.876698   -8.465822 H        1 UNL1     0.0429
     89 H         1.308755   5.820138   -7.03803 H        1 UNL1     0.0429
     90 H         3.384269   5.385663   -5.994024 H        1 UNL1     0.0308
     91 H         3.255246   2.914097   -5.941366 H        1 UNL1     0.0233
     92 H         3.618039   2.836015   -7.684289 H        1 UNL1     0.0233
     93 H         4.842678   3.366041   -6.551179 H        1 UNL1     0.0233
     94 H         5.045808   5.959456   -7.479549 H        1 UNL1     0.0233
     95 H         4.381583   4.96941   -8.788344 H        1 UNL1     0.0233
     96 H         3.585831   6.494796   -8.336715 H        1 UNL1     0.0233
     97 H         -2.088517   -6.678137   -7.448411 H        1 UNL1     0.0280
     98 H         -3.800442   -6.460566   -7.691644 H        1 UNL1     0.0280
     99 H         -2.695529   -6.445213   -9.098293 H        1 UNL1     0.0280
     100 H         -3.034205   -3.677595   -10.852124 H        1 UNL1     0.2922
     101 H         -4.915949   1.183246   -1.601227 H        1 UNL1     0.0236
     102 H         -5.766788   1.175817   -3.195618 H        1 UNL1     0.0236
     103 H         -5.185751   2.651245   -2.487801 H        1 UNL1     0.0236
     104 H         -3.045215   2.77   -0.513306 H        1 UNL1     0.2098
     105 H         0.070542   1.43392   -0.974519 H        1 UNL1     0.0234
     106 H         0.009824   1.483203   0.810133 H        1 UNL1     0.0234
     107 H         0.0   0.0   0.0 H        1 UNL1     0.0234
     108 H         -3.5078   -2.035371   0.582303 H        1 UNL1     0.2098
     109 H         1.199755   -2.197533   -2.034278 H        1 UNL1     0.0234
     110 H         -0.173398   -1.095737   -1.697678 H        1 UNL1     0.0234
     111 H         1.384363   -0.785385   -1.015106 H        1 UNL1     0.0234
     112 H         -0.331803   1.827805   2.497361 H        1 UNL1     0.0342
     113 H         1.065555   2.046624   1.384821 H        1 UNL1     0.0342
     114 H         -0.184456   0.852577   1.024693 H        1 UNL1     0.0342
     115 H         -2.146631   -2.23318   3.763213 H        1 UNL1     0.0234
     116 H         -2.9784   -2.843112   2.329014 H        1 UNL1     0.0234
     117 H         -1.359343   -3.396735   2.804198 H        1 UNL1     0.0234
     118 H         -0.346184   -4.937078   -3.498908 H        1 UNL1     0.0309
     119 H         -0.257981   -5.000294   -5.286724 H        1 UNL1     0.0309
     120 H         0.093277   -3.533031   -4.400206 H        1 UNL1     0.0309
     121 H         -2.573649   -5.338684   1.651505 H        1 UNL1     0.0524
     122 H         -1.103217   -5.860544   0.81943 H        1 UNL1     0.0524
     123 H         -0.97923   -4.804355   2.248708 H        1 UNL1     0.0524
@<TRIPOS>BOND
     1     1     2    1
     2     1    42    1
     3     2     3    2
     4     3     4    1
     5     4     5    2
     6     5     7    1
     7     6    75    1
     8     6    76    1
     9     6    77    1
    10     7     9   am
    11     9    10    1
    12    10    11    2
    13    10    43    1
    14    11    14    1
    15    11    15    1
    16    12    13   ar
    17    12    27   ar
    18    12    43    1
    19    13    14    1
    20    13    30   ar
    21    14    17    2
    22    15    16    1
    23    16    17    1
    24    16    18    1
    25    16    22    1
    26    18    19    1
    27    19    20    1
    28    20    21    1
    29    21    22    1
    30    23    24    1
    31    23    88    1
    32    23    89    1
    33    24    25    1
    34    24    26    1
    35    24    90    1
    36    25    91    1
    37    25    92    1
    38    25    93    1
    39    26    94    1
    40    26    95    1
    41    26    96    1
    42    27    28   ar
    43    28    29   ar
    44    29    30   ar
    45    29    31    1
    46    30    33    1
    47    31    32    1
    48    32    33    1
    49    32    35    1
    50    34    97    1
    51    34    98    1
    52    34    99    1
    53    35    61    1
    54    36    37    1
    55    36    60    1
    56    37    38    1
    57    38    39    1
    58    39    40    1
    59    40    41    1
    60    41    42    1
    61    45   100    1
    62    47   101    1
    63    47   102    1
    64    47   103    1
    65    48   104    1
    66    49   105    1
    67    49   106    1
    68    49   107    1
    69    50   108    1
    70    51    59    1
    71    52   109    1
    72    52   110    1
    73    52   111    1
    74    53    54    1
    75    54    55    2
    76    54    56    1
    77    56   112    1
    78    56   113    1
    79    56   114    1
    80    57   115    1
    81    57   116    1
    82    57   117    1
    83    58   118    1
    84    58   119    1
    85    58   120    1
    86    59   121    1
    87    59   122    1
    88    59   123    1
    89    60    61    2
    90     1    47    1
    91     1    62    1
    92     2    63    1
    93     3    64    1
    94     4    65    1
    95     5     6    1
    96     7     8    2
    97     9    78    1
    98    15    79    1
    99    18    80    1
   100    18    81    1
   101    19    82    1
   102    19    83    1
   103    20    23    1
   104    21    84    1
   105    21    85    1
   106    22    86    1
   107    22    87    1
   108    27    45    1
   109    28    34    1
   110    32    58    1
   111    33    46    2
   112    36    51    1
   113    36    66    1
   114    37    52    1
   115    37    67    1
   116    38    53    1
   117    38    68    1
   118    42    48    1
   119    42    72    1
   120    43    44    2
   121    60    73    1
   122    61    74    1
   123    39    69    1
   124    39    57    1
   125    40    70    1
   126    40    50    1
   127    41    71    1
   128    41    49    1
