@<TRIPOS>MOLECULE
*****
 123 128 0 0 0
SMALL
GASTEIGER

@<TRIPOS>ATOM
     1 C         5.16747   1.746905   0.494816 C.3        1 UNL1     0.0009
     2 C         6.605005   2.552562   -0.354565 C.2        1 UNL1     -0.0787
     3 C         7.887285   2.453965   -1.019458 C.2        1 UNL1     -0.0649
     4 C         8.765671   3.688831   -1.774377 C.2        1 UNL1     -0.0542
     5 C         9.786418   3.98118   -2.712293 C.2        1 UNL1     0.0115
     6 C         10.91496   3.355395   -3.577225 C.3        1 UNL1     -0.0348
     7 C         9.882686   5.464446   -3.318627 C.2        1 UNL1     0.2441
     8 O         10.706616   6.285771   -2.940352 O.2        1 UNL1     -0.2702
     9 N         9.133307   5.671768   -4.489781 N.am        1 UNL1     -0.2772
     10 C         7.850525   6.058885   -4.17684 C.2        1 UNL1     0.1049
     11 C         7.0042   5.087754   -3.885532 C.2        1 UNL1     0.0801
     12 C         6.551782   7.665898   -2.766837 C.ar        1 UNL1     0.0753
     13 C         5.792027   6.538222   -2.319928 C.ar        1 UNL1     0.0305
     14 C         5.908915   5.232527   -2.965333 C.2        1 UNL1     0.0924
     15 N         7.126449   3.758743   -4.044638 N.pl3        1 UNL1     -0.3170
     16 C         5.856169   3.160006   -3.731339 C.3        1 UNL1     0.1275
     17 N         5.219468   4.115397   -2.751766 N.2        1 UNL1     -0.2557
     18 C         5.004172   3.219473   -4.995565 C.3        1 UNL1     0.0016
     19 C         5.759548   2.535193   -6.123729 C.3        1 UNL1     0.0026
     20 N         6.028943   1.156966   -5.737793 N.3        1 UNL1     -0.3018
     21 C         6.791429   0.996209   -4.497978 C.3        1 UNL1     0.0026
     22 C         6.012195   1.686927   -3.377443 C.3        1 UNL1     0.0016
     23 C         6.473884   0.33735   -6.847252 C.3        1 UNL1     0.0012
     24 C         5.318995   0.088359   -7.8301 C.3        1 UNL1     -0.0339
     25 C         5.345673   1.091612   -8.99493 C.3        1 UNL1     -0.0615
     26 C         5.358201   -1.346326   -8.327013 C.3        1 UNL1     -0.0615
     27 C         6.347223   8.933627   -2.227264 C.ar        1 UNL1     0.1347
     28 C         5.387632   9.20345   -1.267873 C.ar        1 UNL1     0.0342
     29 C         4.685362   8.069219   -0.807982 C.ar        1 UNL1     0.1435
     30 C         4.904676   6.787149   -1.31337 C.ar        1 UNL1     0.0774
     31 O         3.643853   8.183099   0.044836 O.3        1 UNL1     -0.4436
     32 C         2.921826   6.950548   -0.097883 C.3        1 UNL1     0.3143
     33 C         3.935115   5.957116   -0.629439 C.2        1 UNL1     0.2504
     34 C         4.940995   10.569684   -0.827395 C.3        1 UNL1     -0.0327
     35 O         2.560175   6.513887   1.218092 O.2        1 UNL1     -0.4528
     36 C         -0.683305   4.582891   0.819116 C.3        1 UNL1     0.0854
     37 C         -0.988479   3.322476   -0.078517 C.3        1 UNL1     0.0236
     38 C         -1.589998   2.061595   0.708946 C.3        1 UNL1     0.1131
     39 C         -0.865276   1.530316   2.010787 C.3        1 UNL1     0.0200
     40 C         0.795837   1.384172   2.053023 C.3        1 UNL1     0.0661
     41 C         1.755688   0.615073   0.884784 C.3        1 UNL1     0.0091
     42 C         3.463771   0.977053   0.32191 C.3        1 UNL1     0.0661
     43 C         7.502477   7.457927   -3.887188 C.2        1 UNL1     0.2131
     44 O         7.903148   8.355907   -4.605403 O.2        1 UNL1     -0.2851
     45 O         7.160158   9.968471   -2.685163 O.3        1 UNL1     -0.5056
     46 O         3.950587   4.753568   -0.498726 O.2        1 UNL1     -0.2836
     47 C         5.562748   1.317198   1.933249 C.3        1 UNL1     -0.0566
     48 O         3.911774   -0.434218   0.4039 O.3        1 UNL1     -0.3909
     49 C         0.922219   0.382858   -0.35574 C.3        1 UNL1     -0.0577
     50 O         1.396219   2.601795   2.44629 O.3        1 UNL1     -0.3910
     51 O         -0.80836   4.393178   2.210447 O.3        1 UNL1     -0.3753
     52 C         0.056663   3.161697   -1.230376 C.3        1 UNL1     -0.0564
     53 O         -2.192394   1.022881   -0.191342 O.3        1 UNL1     -0.4608
     54 C         -2.415389   -0.287048   0.14375 C.2        1 UNL1     0.3042
     55 O         -1.84316   -1.280203   -0.303503 O.2        1 UNL1     -0.2512
     56 C         -3.445715   -0.464863   1.222417 C.3        1 UNL1     0.0332
     57 C         -1.586876   2.199496   3.271606 C.3        1 UNL1     -0.0567
     58 C         1.847419   7.196088   -1.182727 C.3        1 UNL1     0.0210
     59 C         -1.15253   5.565899   2.946747 C.3        1 UNL1     0.0372
     60 C         0.646067   5.211508   0.589391 C.2        1 UNL1     -0.0208
     61 C         1.558599   5.646362   1.459409 C.2        1 UNL1     0.0882
     62 H         4.69185   2.731245   0.581833 H        1 UNL1     0.0365
     63 H         6.339071   3.606452   -0.249374 H        1 UNL1     0.0576
     64 H         8.344732   1.486962   -1.240264 H        1 UNL1     0.0615
     65 H         8.278697   4.604384   -1.427822 H        1 UNL1     0.0622
     66 H         -1.427485   5.329705   0.508456 H        1 UNL1     0.0645
     67 H         -1.853522   3.632187   -0.690349 H        1 UNL1     0.0362
     68 H         -2.537136   2.498795   1.0601 H        1 UNL1     0.0741
     69 H         -1.19729   0.519327   2.205922 H        1 UNL1     0.0359
     70 H         0.906809   0.723754   2.934269 H        1 UNL1     0.0600
     71 H         1.798627   -0.406131   1.3117 H        1 UNL1     0.0348
     72 H         3.357439   1.465246   1.301542 H        1 UNL1     0.0602
     73 H         0.764697   5.408768   -0.447075 H        1 UNL1     0.0628
     74 H         1.540293   5.435649   2.529223 H        1 UNL1     0.1022
     75 H         10.958943   2.250092   -3.424237 H        1 UNL1     0.0279
     76 H         10.802047   3.43828   -4.655859 H        1 UNL1     0.0279
     77 H         11.919937   3.659718   -3.249948 H        1 UNL1     0.0279
     78 H         9.071326   4.801868   -5.014671 H        1 UNL1     0.1553
     79 H         7.791958   3.330542   -4.661626 H        1 UNL1     0.1484
     80 H         4.042588   2.728879   -4.802068 H        1 UNL1     0.0317
     81 H         4.778113   4.256322   -5.266661 H        1 UNL1     0.0317
     82 H         6.690562   3.066169   -6.371095 H        1 UNL1     0.0428
     83 H         5.134985   2.590607   -7.015862 H        1 UNL1     0.0428
     84 H         6.911173   -0.046802   -4.188784 H        1 UNL1     0.0428
     85 H         7.821721   1.363872   -4.601121 H        1 UNL1     0.0428
     86 H         6.527948   1.436332   -2.469044 H        1 UNL1     0.0317
     87 H         5.032497   1.20964   -3.253002 H        1 UNL1     0.0317
     88 H         7.27048   0.878882   -7.374008 H        1 UNL1     0.0429
     89 H         6.905912   -0.608597   -6.496096 H        1 UNL1     0.0429
     90 H         4.365833   0.195388   -7.298837 H        1 UNL1     0.0308
     91 H         6.294922   1.046386   -9.537133 H        1 UNL1     0.0233
     92 H         4.525767   0.897842   -9.690499 H        1 UNL1     0.0233
     93 H         5.221481   2.127514   -8.65682 H        1 UNL1     0.0233
     94 H         4.662407   -1.475613   -9.16307 H        1 UNL1     0.0233
     95 H         6.362712   -1.590949   -8.683496 H        1 UNL1     0.0233
     96 H         5.083071   -2.050101   -7.536461 H        1 UNL1     0.0233
     97 H         4.147167   10.520159   -0.088061 H        1 UNL1     0.0280
     98 H         5.753654   11.139411   -0.358084 H        1 UNL1     0.0280
     99 H         4.568075   11.134392   -1.697528 H        1 UNL1     0.0280
     100 H         6.6936   10.719004   -3.008655 H        1 UNL1     0.2922
     101 H         4.699456   0.883848   2.43782 H        1 UNL1     0.0236
     102 H         6.013451   2.122354   2.512536 H        1 UNL1     0.0236
     103 H         6.318707   0.514255   1.932595 H        1 UNL1     0.0236
     104 H         4.330706   -0.560396   1.277711 H        1 UNL1     0.2098
     105 H         0.710262   1.28179   -0.929155 H        1 UNL1     0.0234
     106 H         1.291741   -0.405269   -1.011664 H        1 UNL1     0.0234
     107 H         0.0   -0.0   0.0 H        1 UNL1     0.0234
     108 H         1.198349   3.260147   1.752613 H        1 UNL1     0.2098
     109 H         1.081215   3.047836   -0.849535 H        1 UNL1     0.0234
     110 H         -0.175646   2.334709   -1.909985 H        1 UNL1     0.0234
     111 H         0.078588   4.04453   -1.883118 H        1 UNL1     0.0234
     112 H         -3.571582   -1.528778   1.445103 H        1 UNL1     0.0342
     113 H         -3.197552   0.095964   2.122268 H        1 UNL1     0.0342
     114 H         -4.405193   -0.08364   0.846605 H        1 UNL1     0.0342
     115 H         -2.651167   1.93145   3.322834 H        1 UNL1     0.0234
     116 H         -1.136037   1.938751   4.231192 H        1 UNL1     0.0234
     117 H         -1.64691   3.299815   3.21131 H        1 UNL1     0.0234
     118 H         0.946258   7.683301   -0.770975 H        1 UNL1     0.0309
     119 H         2.217537   7.783973   -2.028662 H        1 UNL1     0.0309
     120 H         1.458783   6.264286   -1.607948 H        1 UNL1     0.0309
     121 H         -0.347953   6.288172   2.811344 H        1 UNL1     0.0524
     122 H         -2.082291   6.032097   2.580356 H        1 UNL1     0.0524
     123 H         -1.26897   5.327603   4.000194 H        1 UNL1     0.0524
@<TRIPOS>BOND
     1     1     2    1
     2     1    42    1
     3     2     3    2
     4     3     4    1
     5     4     5    2
     6     5     7    1
     7     6    75    1
     8     6    76    1
     9     6    77    1
    10     7     9   am
    11     9    10    1
    12    10    11    2
    13    10    43    1
    14    11    14    1
    15    11    15    1
    16    12    13   ar
    17    12    27   ar
    18    12    43    1
    19    13    14    1
    20    13    30   ar
    21    14    17    2
    22    15    16    1
    23    16    17    1
    24    16    18    1
    25    16    22    1
    26    18    19    1
    27    19    20    1
    28    20    21    1
    29    21    22    1
    30    23    24    1
    31    23    88    1
    32    23    89    1
    33    24    25    1
    34    24    26    1
    35    24    90    1
    36    25    91    1
    37    25    92    1
    38    25    93    1
    39    26    94    1
    40    26    95    1
    41    26    96    1
    42    27    28   ar
    43    28    29   ar
    44    29    30   ar
    45    29    31    1
    46    30    33    1
    47    31    32    1
    48    32    33    1
    49    32    35    1
    50    34    97    1
    51    34    98    1
    52    34    99    1
    53    35    61    1
    54    36    37    1
    55    36    60    1
    56    37    38    1
    57    38    39    1
    58    39    40    1
    59    40    41    1
    60    41    42    1
    61    45   100    1
    62    47   101    1
    63    47   102    1
    64    47   103    1
    65    48   104    1
    66    49   105    1
    67    49   106    1
    68    49   107    1
    69    50   108    1
    70    51    59    1
    71    52   109    1
    72    52   110    1
    73    52   111    1
    74    53    54    1
    75    54    55    2
    76    54    56    1
    77    56   112    1
    78    56   113    1
    79    56   114    1
    80    57   115    1
    81    57   116    1
    82    57   117    1
    83    58   118    1
    84    58   119    1
    85    58   120    1
    86    59   121    1
    87    59   122    1
    88    59   123    1
    89    60    61    2
    90     1    47    1
    91     1    62    1
    92     2    63    1
    93     3    64    1
    94     4    65    1
    95     5     6    1
    96     7     8    2
    97     9    78    1
    98    15    79    1
    99    18    80    1
   100    18    81    1
   101    19    82    1
   102    19    83    1
   103    20    23    1
   104    21    84    1
   105    21    85    1
   106    22    86    1
   107    22    87    1
   108    27    45    1
   109    28    34    1
   110    32    58    1
   111    33    46    2
   112    36    51    1
   113    36    66    1
   114    37    52    1
   115    37    67    1
   116    38    53    1
   117    38    68    1
   118    42    48    1
   119    42    72    1
   120    43    44    2
   121    60    73    1
   122    61    74    1
   123    39    69    1
   124    39    57    1
   125    40    70    1
   126    40    50    1
   127    41    71    1
   128    41    49    1
