@<TRIPOS>MOLECULE
*****
 123 128 0 0 0
SMALL
GASTEIGER

@<TRIPOS>ATOM
     1 C         2.32759   0.065821   3.405954 C.3        1 UNL1     0.0009
     2 C         2.719164   1.523712   4.48218 C.2        1 UNL1     -0.0787
     3 C         3.605397   2.604732   4.859051 C.2        1 UNL1     -0.0649
     4 C         3.326295   3.832611   5.990764 C.2        1 UNL1     -0.0542
     5 C         3.714459   5.12553   6.420608 C.2        1 UNL1     0.0115
     6 C         4.780062   6.241791   6.242356 C.3        1 UNL1     -0.0348
     7 C         2.723765   5.958511   7.370165 C.2        1 UNL1     0.2441
     8 O         2.894019   6.068086   8.57662 O.2        1 UNL1     -0.2702
     9 N         1.79744   6.767729   6.689547 N.am        1 UNL1     -0.2772
     10 C         0.657117   6.053813   6.400914 C.2        1 UNL1     0.1049
     11 C         0.699718   5.302861   5.315337 C.2        1 UNL1     0.0801
     12 C         -1.048322   4.53944   7.428282 C.ar        1 UNL1     0.0753
     13 C         -0.810536   3.654632   6.328656 C.ar        1 UNL1     0.0305
     14 C         -0.024885   4.069647   5.16867 C.2        1 UNL1     0.0924
     15 N         1.60189   5.274528   4.31944 N.pl3        1 UNL1     -0.3170
     16 C         1.096216   4.402011   3.293155 C.3        1 UNL1     0.1275
     17 N         0.211809   3.42552   4.029371 N.2        1 UNL1     -0.2557
     18 C         0.168345   5.231774   2.410971 C.3        1 UNL1     0.0016
     19 C         0.939548   6.433719   1.889276 C.3        1 UNL1     0.0026
     20 N         2.092327   5.958997   1.136436 N.3        1 UNL1     -0.3018
     21 C         3.012704   5.100184   1.884577 C.3        1 UNL1     0.0026
     22 C         2.218074   3.897048   2.395382 C.3        1 UNL1     0.0016
     23 C         2.721356   7.002066   0.35096 C.3        1 UNL1     0.0012
     24 C         1.672728   7.754918   -0.482915 C.3        1 UNL1     -0.0339
     25 C         2.170051   8.008836   -1.915484 C.3        1 UNL1     -0.0615
     26 C         0.357392   6.995579   -0.474169 C.3        1 UNL1     -0.0615
     27 C         -1.896618   4.180489   8.473111 C.ar        1 UNL1     0.1347
     28 C         -2.591346   2.984613   8.508927 C.ar        1 UNL1     0.0342
     29 C         -2.303875   2.10906   7.440315 C.ar        1 UNL1     0.1435
     30 C         -1.428599   2.44028   6.405228 C.ar        1 UNL1     0.0774
     31 O         -2.982278   0.952619   7.274722 O.3        1 UNL1     -0.4436
     32 C         -2.768308   0.600359   5.899585 C.3        1 UNL1     0.3143
     33 C         -1.488584   1.308731   5.503694 C.2        1 UNL1     0.2504
     34 C         -3.702759   2.638745   9.460366 C.3        1 UNL1     -0.0327
     35 O         -2.496901   -0.805986   5.857376 O.2        1 UNL1     -0.4528
     36 C         -3.773933   -2.011749   2.492348 C.3        1 UNL1     0.0854
     37 C         -3.382793   -1.522695   1.044813 C.3        1 UNL1     0.0236
     38 C         -2.873949   -2.677847   0.055649 C.3        1 UNL1     0.1131
     39 C         -1.734308   -3.668811   0.526265 C.3        1 UNL1     0.0200
     40 C         -0.39298   -3.09189   1.332762 C.3        1 UNL1     0.0661
     41 C         0.576619   -1.788876   0.843226 C.3        1 UNL1     0.0091
     42 C         1.509145   -0.560381   1.836502 C.3        1 UNL1     0.0661
     43 C         -0.431812   5.888275   7.375176 C.2        1 UNL1     0.2131
     44 O         -0.846531   6.843198   8.006735 O.2        1 UNL1     -0.2851
     45 O         -2.038035   5.080391   9.527443 O.3        1 UNL1     -0.5056
     46 O         -0.687455   0.996898   4.651165 O.2        1 UNL1     -0.2836
     47 C         3.184306   -1.159185   3.824739 C.3        1 UNL1     -0.0566
     48 O         2.755143   -0.695834   1.043875 O.3        1 UNL1     -0.3909
     49 C         -0.147666   -1.021754   -0.240484 C.3        1 UNL1     -0.0577
     50 O         -0.637946   -3.016422   2.722733 O.3        1 UNL1     -0.3910
     51 O         -3.467362   -3.354587   2.792732 O.3        1 UNL1     -0.3753
     52 C         -2.732032   -0.101088   1.067013 C.3        1 UNL1     -0.0564
     53 O         -2.845849   -2.264122   -1.386699 O.3        1 UNL1     -0.4608
     54 C         -3.186429   -3.06006   -2.448969 C.2        1 UNL1     0.3042
     55 O         -4.200629   -2.987372   -3.141756 O.2        1 UNL1     -0.2512
     56 C         -2.140953   -4.082065   -2.794222 C.3        1 UNL1     0.0332
     57 C         -2.444058   -4.9807   1.103653 C.3        1 UNL1     -0.0567
     58 C         -3.944186   1.212412   5.103199 C.3        1 UNL1     0.0210
     59 C         -2.968687   -3.57505   4.111286 C.3        1 UNL1     0.0372
     60 C         -3.226297   -1.187425   3.60399 C.2        1 UNL1     -0.0208
     61 C         -2.645962   -1.554173   4.747428 C.2        1 UNL1     0.0882
     62 H         1.365706   -0.033441   3.923291 H        1 UNL1     0.0365
     63 H         1.87337   1.500172   5.172505 H        1 UNL1     0.0576
     64 H         4.51583   2.821346   4.295759 H        1 UNL1     0.0615
     65 H         2.451719   3.481941   6.545408 H        1 UNL1     0.0622
     66 H         -4.865598   -1.892601   2.538363 H        1 UNL1     0.0645
     67 H         -4.348001   -1.248923   0.584398 H        1 UNL1     0.0362
     68 H         -3.78777   -3.288967   0.001016 H        1 UNL1     0.0741
     69 H         -1.301783   -4.141049   -0.345699 H        1 UNL1     0.0359
     70 H         0.285821   -3.958586   1.218185 H        1 UNL1     0.0600
     71 H         1.342137   -2.32892   0.252216 H        1 UNL1     0.0348
     72 H         1.317017   -1.410047   2.507673 H        1 UNL1     0.0602
     73 H         -3.471135   -0.168025   3.436285 H        1 UNL1     0.0628
     74 H         -2.310991   -2.567458   4.97167 H        1 UNL1     0.1022
     75 H         4.352377   7.238243   6.509195 H        1 UNL1     0.0279
     76 H         5.656026   6.183276   6.884488 H        1 UNL1     0.0279
     77 H         5.05826   6.400022   5.190087 H        1 UNL1     0.0279
     78 H         2.197383   7.076557   5.805948 H        1 UNL1     0.1553
     79 H         2.246321   6.020099   4.130321 H        1 UNL1     0.1484
     80 H         -0.199524   4.604759   1.589819 H        1 UNL1     0.0317
     81 H         -0.712494   5.562431   2.97172 H        1 UNL1     0.0317
     82 H         1.248158   7.104559   2.704534 H        1 UNL1     0.0428
     83 H         0.258825   7.012506   1.264239 H        1 UNL1     0.0428
     84 H         3.825735   4.692989   1.275492 H        1 UNL1     0.0428
     85 H         3.527993   5.651272   2.683386 H        1 UNL1     0.0428
     86 H         2.944618   3.229315   2.819948 H        1 UNL1     0.0317
     87 H         1.814363   3.327962   1.549064 H        1 UNL1     0.0317
     88 H         3.193764   7.712249   1.042166 H        1 UNL1     0.0429
     89 H         3.517217   6.596058   -0.286641 H        1 UNL1     0.0429
     90 H         1.463722   8.721506   -0.009379 H        1 UNL1     0.0308
     91 H         1.609231   7.413843   -2.64251 H        1 UNL1     0.0233
     92 H         2.081514   9.066806   -2.1733 H        1 UNL1     0.0233
     93 H         3.228468   7.750803   -2.042013 H        1 UNL1     0.0233
     94 H         0.411877   6.137913   -1.153342 H        1 UNL1     0.0233
     95 H         0.151127   6.617115   0.53091 H        1 UNL1     0.0233
     96 H         -0.473567   7.633194   -0.788685 H        1 UNL1     0.0233
     97 H         -4.681806   2.796062   9.017705 H        1 UNL1     0.0280
     98 H         -3.675559   1.583642   9.762481 H        1 UNL1     0.0280
     99 H         -3.625989   3.268234   10.362001 H        1 UNL1     0.0280
     100 H         -1.364805   5.736198   9.575411 H        1 UNL1     0.2922
     101 H         4.075783   -0.821184   4.352641 H        1 UNL1     0.0236
     102 H         3.427439   -1.817306   2.991225 H        1 UNL1     0.0236
     103 H         2.658462   -1.804447   4.548147 H        1 UNL1     0.0236
     104 H         2.498476   -0.902461   0.123876 H        1 UNL1     0.2098
     105 H         0.239354   -1.186935   -1.242853 H        1 UNL1     0.0234
     106 H         -1.231757   -1.133922   -0.230865 H        1 UNL1     0.0234
     107 H         0.0   0.0   0.0 H        1 UNL1     0.0234
     108 H         0.153733   -2.620937   3.135774 H        1 UNL1     0.2098
     109 H         -2.878109   0.438093   0.120622 H        1 UNL1     0.0234
     110 H         -3.081044   0.519068   1.899684 H        1 UNL1     0.0234
     111 H         -1.645028   -0.155805   1.21321 H        1 UNL1     0.0234
     112 H         -1.381284   -4.11776   -2.007473 H        1 UNL1     0.0342
     113 H         -2.572173   -5.067157   -2.965945 H        1 UNL1     0.0342
     114 H         -1.64791   -3.76777   -3.724433 H        1 UNL1     0.0342
     115 H         -3.487615   -5.061137   0.769426 H        1 UNL1     0.0234
     116 H         -1.940858   -5.911955   0.836062 H        1 UNL1     0.0234
     117 H         -2.571918   -4.965461   2.199719 H        1 UNL1     0.0234
     118 H         -3.936742   0.897405   4.04503 H        1 UNL1     0.0309
     119 H         -4.922486   0.984129   5.537962 H        1 UNL1     0.0309
     120 H         -3.886996   2.304696   5.041959 H        1 UNL1     0.0309
     121 H         -2.734199   -4.635298   4.202096 H        1 UNL1     0.0524
     122 H         -2.04106   -3.011926   4.307339 H        1 UNL1     0.0524
     123 H         -3.715375   -3.291883   4.847742 H        1 UNL1     0.0524
@<TRIPOS>BOND
     1     1     2    1
     2     1    42    1
     3     2     3    2
     4     3     4    1
     5     4     5    2
     6     5     7    1
     7     6    75    1
     8     6    76    1
     9     6    77    1
    10     7     9   am
    11     9    10    1
    12    10    11    2
    13    10    43    1
    14    11    14    1
    15    11    15    1
    16    12    13   ar
    17    12    27   ar
    18    12    43    1
    19    13    14    1
    20    13    30   ar
    21    14    17    2
    22    15    16    1
    23    16    17    1
    24    16    18    1
    25    16    22    1
    26    18    19    1
    27    19    20    1
    28    20    21    1
    29    21    22    1
    30    23    24    1
    31    23    88    1
    32    23    89    1
    33    24    25    1
    34    24    26    1
    35    24    90    1
    36    25    91    1
    37    25    92    1
    38    25    93    1
    39    26    94    1
    40    26    95    1
    41    26    96    1
    42    27    28   ar
    43    28    29   ar
    44    29    30   ar
    45    29    31    1
    46    30    33    1
    47    31    32    1
    48    32    33    1
    49    32    35    1
    50    34    97    1
    51    34    98    1
    52    34    99    1
    53    35    61    1
    54    36    37    1
    55    36    60    1
    56    37    38    1
    57    38    39    1
    58    39    40    1
    59    40    41    1
    60    41    42    1
    61    45   100    1
    62    47   101    1
    63    47   102    1
    64    47   103    1
    65    48   104    1
    66    49   105    1
    67    49   106    1
    68    49   107    1
    69    50   108    1
    70    51    59    1
    71    52   109    1
    72    52   110    1
    73    52   111    1
    74    53    54    1
    75    54    55    2
    76    54    56    1
    77    56   112    1
    78    56   113    1
    79    56   114    1
    80    57   115    1
    81    57   116    1
    82    57   117    1
    83    58   118    1
    84    58   119    1
    85    58   120    1
    86    59   121    1
    87    59   122    1
    88    59   123    1
    89    60    61    2
    90     1    47    1
    91     1    62    1
    92     2    63    1
    93     3    64    1
    94     4    65    1
    95     5     6    1
    96     7     8    2
    97     9    78    1
    98    15    79    1
    99    18    80    1
   100    18    81    1
   101    19    82    1
   102    19    83    1
   103    20    23    1
   104    21    84    1
   105    21    85    1
   106    22    86    1
   107    22    87    1
   108    27    45    1
   109    28    34    1
   110    32    58    1
   111    33    46    2
   112    36    51    1
   113    36    66    1
   114    37    52    1
   115    37    67    1
   116    38    53    1
   117    38    68    1
   118    42    48    1
   119    42    72    1
   120    43    44    2
   121    60    73    1
   122    61    74    1
   123    39    69    1
   124    39    57    1
   125    40    70    1
   126    40    50    1
   127    41    71    1
   128    41    49    1
