@<TRIPOS>MOLECULE
*****
 123 128 0 0 0
SMALL
GASTEIGER

@<TRIPOS>ATOM
     1 C         -0.679821   4.139483   -0.090619 C.3        1 UNL1     0.0009
     2 C         -1.739187   5.080243   -1.286341 C.2        1 UNL1     -0.0787
     3 C         -1.867019   5.939437   -2.444568 C.2        1 UNL1     -0.0649
     4 C         -3.287291   6.429725   -3.224825 C.2        1 UNL1     -0.0542
     5 C         -3.833537   6.944213   -4.426489 C.2        1 UNL1     0.0115
     6 C         -3.475668   7.564443   -5.8051 C.3        1 UNL1     -0.0348
     7 C         -5.411449   6.802746   -4.685665 C.2        1 UNL1     0.2441
     8 O         -6.195974   7.729492   -4.536708 O.2        1 UNL1     -0.2702
     9 N         -5.796635   5.621964   -5.344101 N.am        1 UNL1     -0.2772
     10 C         -6.021432   4.615584   -4.433066 C.2        1 UNL1     0.1049
     11 C         -4.954321   3.957902   -4.017192 C.2        1 UNL1     0.0801
     12 C         -7.21638   4.10552   -2.295481 C.ar        1 UNL1     0.0753
     13 C         -5.97114   3.589796   -1.813804 C.ar        1 UNL1     0.0305
     14 C         -4.83346   3.379653   -2.706315 C.2        1 UNL1     0.0924
     15 N         -3.696455   3.96476   -4.490746 N.pl3        1 UNL1     -0.3170
     16 C         -2.958851   2.944989   -3.793422 C.3        1 UNL1     0.1275
     17 N         -3.650404   2.825297   -2.457326 N.2        1 UNL1     -0.2557
     18 C         -3.211055   1.62753   -4.520331 C.3        1 UNL1     0.0016
     19 C         -2.822637   1.795696   -5.980619 C.3        1 UNL1     0.0026
     20 N         -1.417469   2.172051   -6.050541 N.3        1 UNL1     -0.3018
     21 C         -1.064896   3.395826   -5.327743 C.3        1 UNL1     0.0026
     22 C         -1.459454   3.203039   -3.862461 C.3        1 UNL1     0.0016
     23 C         -0.871161   2.065964   -7.3888 C.3        1 UNL1     0.0012
     24 C         -0.744042   0.591605   -7.803362 C.3        1 UNL1     -0.0339
     25 C         -1.725853   0.238308   -8.932647 C.3        1 UNL1     -0.0615
     26 C         0.690927   0.282052   -8.193003 C.3        1 UNL1     -0.0615
     27 C         -8.33206   4.1896   -1.465838 C.ar        1 UNL1     0.1347
     28 C         -8.33507   3.753612   -0.152844 C.ar        1 UNL1     0.0342
     29 C         -7.08487   3.295074   0.313961 C.ar        1 UNL1     0.1435
     30 C         -5.949345   3.238853   -0.495139 C.ar        1 UNL1     0.0774
     31 O         -6.951169   2.734904   1.535984 O.3        1 UNL1     -0.4436
     32 C         -5.724686   1.992478   1.462381 C.3        1 UNL1     0.3143
     33 C         -4.932448   2.64573   0.348005 C.2        1 UNL1     0.2504
     34 C         -9.54984   3.57922   0.715501 C.3        1 UNL1     -0.0327
     35 O         -5.007923   2.232204   2.679769 O.2        1 UNL1     -0.4528
     36 C         -2.972675   -0.906318   3.324386 C.3        1 UNL1     0.0854
     37 C         -1.900177   -1.605052   2.402951 C.3        1 UNL1     0.0236
     38 C         -0.467476   -1.832892   3.086472 C.3        1 UNL1     0.1131
     39 C         0.262245   -0.625238   3.801559 C.3        1 UNL1     0.0200
     40 C         0.296331   0.882664   3.089164 C.3        1 UNL1     0.0661
     41 C         0.745135   1.214958   1.487363 C.3        1 UNL1     0.0091
     42 C         0.157778   2.513102   0.331838 C.3        1 UNL1     0.0661
     43 C         -7.30554   4.464642   -3.732611 C.2        1 UNL1     0.2131
     44 O         -8.355581   4.533123   -4.34536 O.2        1 UNL1     -0.2851
     45 O         -9.492563   4.745983   -1.999793 O.3        1 UNL1     -0.5056
     46 O         -3.731352   2.68657   0.201191 O.2        1 UNL1     -0.2836
     47 C         0.00137   5.11333   0.908171 C.3        1 UNL1     -0.0566
     48 O         1.521513   2.916184   -0.088719 O.3        1 UNL1     -0.3909
     49 C         0.781373   -0.08281   0.71149 C.3        1 UNL1     -0.0577
     50 O         -0.856603   1.624997   3.431813 O.3        1 UNL1     -0.3910
     51 O         -2.498727   -0.414749   4.557741 O.3        1 UNL1     -0.3753
     52 C         -2.048444   -1.173635   0.907342 C.3        1 UNL1     -0.0564
     53 O         0.408848   -2.794372   2.338183 O.3        1 UNL1     -0.4608
     54 C         1.766191   -2.681059   2.18748 C.2        1 UNL1     0.3042
     55 O         2.380679   -2.362186   1.170345 O.2        1 UNL1     -0.2512
     56 C         2.534891   -2.932294   3.453455 C.3        1 UNL1     0.0332
     57 C         -0.087128   -0.705384   5.360305 C.3        1 UNL1     -0.0567
     58 C         -6.106927   0.558267   1.028262 C.3        1 UNL1     0.0210
     59 C         -2.914147   -1.161754   5.700227 C.3        1 UNL1     0.0372
     60 C         -3.726835   0.203885   2.681073 C.2        1 UNL1     -0.0208
     61 C         -4.041138   1.415707   3.140905 C.2        1 UNL1     0.0882
     62 H         -1.590498   3.774789   0.399663 H        1 UNL1     0.0365
     63 H         -2.728956   4.913727   -0.856108 H        1 UNL1     0.0576
     64 H         -0.998901   6.229695   -3.040579 H        1 UNL1     0.0615
     65 H         -4.077773   6.166652   -2.516719 H        1 UNL1     0.0622
     66 H         -3.7123   -1.692375   3.53203 H        1 UNL1     0.0645
     67 H         -2.264772   -2.642506   2.306419 H        1 UNL1     0.0362
     68 H         -0.757202   -2.519599   3.89642 H        1 UNL1     0.0741
     69 H         1.312674   -0.86371   3.902253 H        1 UNL1     0.0359
     70 H         1.110952   1.351378   3.673768 H        1 UNL1     0.0600
     71 H         1.825697   1.414668   1.626857 H        1 UNL1     0.0348
     72 H         -0.114714   2.858414   1.339719 H        1 UNL1     0.0602
     73 H         -4.136348   -0.138008   1.763109 H        1 UNL1     0.0628
     74 H         -3.618854   1.862028   4.041855 H        1 UNL1     0.1022
     75 H         -2.716331   8.374438   -5.685317 H        1 UNL1     0.0279
     76 H         -3.000751   6.90289   -6.52612 H        1 UNL1     0.0279
     77 H         -4.314069   8.117759   -6.253014 H        1 UNL1     0.0279
     78 H         -5.047889   5.314729   -5.961404 H        1 UNL1     0.1553
     79 H         -3.449106   4.282241   -5.409962 H        1 UNL1     0.1484
     80 H         -2.624979   0.835534   -4.038642 H        1 UNL1     0.0317
     81 H         -4.262651   1.331791   -4.440743 H        1 UNL1     0.0317
     82 H         -3.456842   2.537661   -6.487753 H        1 UNL1     0.0428
     83 H         -3.012105   0.845366   -6.480643 H        1 UNL1     0.0428
     84 H         0.007883   3.612518   -5.32926 H        1 UNL1     0.0428
     85 H         -1.517543   4.286023   -5.785975 H        1 UNL1     0.0428
     86 H         -1.06834   4.057775   -3.342418 H        1 UNL1     0.0317
     87 H         -0.898988   2.364882   -3.430643 H        1 UNL1     0.0317
     88 H         -1.562377   2.565131   -8.080426 H        1 UNL1     0.0429
     89 H         0.093189   2.584153   -7.468072 H        1 UNL1     0.0429
     90 H         -0.963431   -0.045021   -6.938036 H        1 UNL1     0.0308
     91 H         -2.004157   1.125256   -9.509684 H        1 UNL1     0.0233
     92 H         -1.290302   -0.504731   -9.604806 H        1 UNL1     0.0233
     93 H         -2.657196   -0.200232   -8.554338 H        1 UNL1     0.0233
     94 H         0.770676   -0.749813   -8.551794 H        1 UNL1     0.0233
     95 H         1.010016   0.945707   -9.001525 H        1 UNL1     0.0233
     96 H         1.370368   0.4066   -7.345173 H        1 UNL1     0.0233
     97 H         -9.652749   2.558656   1.071997 H        1 UNL1     0.0280
     98 H         -9.510122   4.208839   1.613977 H        1 UNL1     0.0280
     99 H         -10.454395   3.837388   0.140849 H        1 UNL1     0.0280
     100 H         -9.365467   5.56655   -2.442669 H        1 UNL1     0.2922
     101 H         -0.497164   5.055981   1.875555 H        1 UNL1     0.0236
     102 H         0.058931   6.136292   0.53774 H        1 UNL1     0.0236
     103 H         1.046938   4.830082   1.114934 H        1 UNL1     0.0236
     104 H         1.857647   3.553185   0.571746 H        1 UNL1     0.2098
     105 H         1.707706   -0.256406   0.169657 H        1 UNL1     0.0234
     106 H         0.510327   -0.966426   1.289143 H        1 UNL1     0.0234
     107 H         0.0   0.0   0.0 H        1 UNL1     0.0234
     108 H         -1.238697   1.214785   4.2315 H        1 UNL1     0.2098
     109 H         -3.030025   -1.441959   0.492357 H        1 UNL1     0.0234
     110 H         -1.862105   -0.106282   0.746783 H        1 UNL1     0.0234
     111 H         -1.30865   -1.672287   0.267032 H        1 UNL1     0.0234
     112 H         3.606148   -2.805866   3.269688 H        1 UNL1     0.0342
     113 H         2.20036   -2.293352   4.269351 H        1 UNL1     0.0342
     114 H         2.365883   -3.974828   3.756311 H        1 UNL1     0.0342
     115 H         0.129989   -1.698583   5.776963 H        1 UNL1     0.0234
     116 H         0.44004   0.029624   5.971783 H        1 UNL1     0.0234
     117 H         -1.166022   -0.615646   5.574493 H        1 UNL1     0.0234
     118 H         -5.963906   -0.173399   1.842643 H        1 UNL1     0.0309
     119 H         -7.132747   0.481681   0.654055 H        1 UNL1     0.0309
     120 H         -5.463153   0.175417   0.228833 H        1 UNL1     0.0309
     121 H         -2.240961   -2.012726   5.800352 H        1 UNL1     0.0524
     122 H         -2.847371   -0.574324   6.631089 H        1 UNL1     0.0524
     123 H         -3.936696   -1.505681   5.572936 H        1 UNL1     0.0524
@<TRIPOS>BOND
     1     1     2    1
     2     1    42    1
     3     2     3    2
     4     3     4    1
     5     4     5    2
     6     5     7    1
     7     6    75    1
     8     6    76    1
     9     6    77    1
    10     7     9   am
    11     9    10    1
    12    10    11    2
    13    10    43    1
    14    11    14    1
    15    11    15    1
    16    12    13   ar
    17    12    27   ar
    18    12    43    1
    19    13    14    1
    20    13    30   ar
    21    14    17    2
    22    15    16    1
    23    16    17    1
    24    16    18    1
    25    16    22    1
    26    18    19    1
    27    19    20    1
    28    20    21    1
    29    21    22    1
    30    23    24    1
    31    23    88    1
    32    23    89    1
    33    24    25    1
    34    24    26    1
    35    24    90    1
    36    25    91    1
    37    25    92    1
    38    25    93    1
    39    26    94    1
    40    26    95    1
    41    26    96    1
    42    27    28   ar
    43    28    29   ar
    44    29    30   ar
    45    29    31    1
    46    30    33    1
    47    31    32    1
    48    32    33    1
    49    32    35    1
    50    34    97    1
    51    34    98    1
    52    34    99    1
    53    35    61    1
    54    36    37    1
    55    36    60    1
    56    37    38    1
    57    38    39    1
    58    39    40    1
    59    40    41    1
    60    41    42    1
    61    45   100    1
    62    47   101    1
    63    47   102    1
    64    47   103    1
    65    48   104    1
    66    49   105    1
    67    49   106    1
    68    49   107    1
    69    50   108    1
    70    51    59    1
    71    52   109    1
    72    52   110    1
    73    52   111    1
    74    53    54    1
    75    54    55    2
    76    54    56    1
    77    56   112    1
    78    56   113    1
    79    56   114    1
    80    57   115    1
    81    57   116    1
    82    57   117    1
    83    58   118    1
    84    58   119    1
    85    58   120    1
    86    59   121    1
    87    59   122    1
    88    59   123    1
    89    60    61    2
    90     1    47    1
    91     1    62    1
    92     2    63    1
    93     3    64    1
    94     4    65    1
    95     5     6    1
    96     7     8    2
    97     9    78    1
    98    15    79    1
    99    18    80    1
   100    18    81    1
   101    19    82    1
   102    19    83    1
   103    20    23    1
   104    21    84    1
   105    21    85    1
   106    22    86    1
   107    22    87    1
   108    27    45    1
   109    28    34    1
   110    32    58    1
   111    33    46    2
   112    36    51    1
   113    36    66    1
   114    37    52    1
   115    37    67    1
   116    38    53    1
   117    38    68    1
   118    42    48    1
   119    42    72    1
   120    43    44    2
   121    60    73    1
   122    61    74    1
   123    39    69    1
   124    39    57    1
   125    40    70    1
   126    40    50    1
   127    41    71    1
   128    41    49    1
