@<TRIPOS>MOLECULE
*****
 123 128 0 0 0
SMALL
GASTEIGER

@<TRIPOS>ATOM
     1 C         0.647209   4.037872   3.1348 C.3        1 UNL1     0.0009
     2 C         -0.105826   5.708083   3.418295 C.2        1 UNL1     -0.0787
     3 C         0.002974   7.15176   3.415894 C.2        1 UNL1     -0.0649
     4 C         -1.219708   8.28791   3.699742 C.2        1 UNL1     -0.0542
     5 C         -1.616226   9.636122   3.520368 C.2        1 UNL1     0.0115
     6 C         -1.12564   11.041877   3.077082 C.3        1 UNL1     -0.0348
     7 C         -3.16796   10.01678   3.675972 C.2        1 UNL1     0.2441
     8 O         -3.624237   10.554338   4.675656 O.2        1 UNL1     -0.2702
     9 N         -3.917292   9.9309   2.489685 N.am        1 UNL1     -0.2772
     10 C         -4.414048   8.658128   2.326568 C.2        1 UNL1     0.1049
     11 C         -3.589512   7.775551   1.792321 C.2        1 UNL1     0.0801
     12 C         -5.644319   6.840155   3.526044 C.ar        1 UNL1     0.0753
     13 C         -4.604735   5.957457   3.091628 C.ar        1 UNL1     0.0305
     14 C         -3.613923   6.371376   2.100661 C.2        1 UNL1     0.0924
     15 N         -2.405216   7.95791   1.183457 N.pl3        1 UNL1     -0.3170
     16 C         -1.997211   6.69457   0.628697 C.3        1 UNL1     0.1275
     17 N         -2.652241   5.663492   1.515003 N.2        1 UNL1     -0.2557
     18 C         -2.664192   6.564001   -0.737242 C.3        1 UNL1     0.0016
     19 C         -2.286169   7.771353   -1.580443 C.3        1 UNL1     0.0026
     20 N         -0.836098   7.817519   -1.707685 N.3        1 UNL1     -0.3018
     21 C         -0.102639   7.881568   -0.441863 C.3        1 UNL1     0.0026
     22 C         -0.493935   6.657076   0.387235 C.3        1 UNL1     0.0016
     23 C         -0.388775   8.744252   -2.728328 C.3        1 UNL1     0.0012
     24 C         -1.256565   10.01258   -2.72189 C.3        1 UNL1     -0.0339
     25 C         -1.027972   10.843922   -1.448834 C.3        1 UNL1     -0.0615
     26 C         -0.996118   10.828161   -3.976392 C.3        1 UNL1     -0.0615
     27 C         -6.654884   6.400958   4.37809 C.ar        1 UNL1     0.1347
     28 C         -6.753222   5.096525   4.828461 C.ar        1 UNL1     0.0342
     29 C         -5.691751   4.25776   4.427317 C.ar        1 UNL1     0.1435
     30 C         -4.653129   4.693231   3.603393 C.ar        1 UNL1     0.0774
     31 O         -5.701009   2.93328   4.693163 O.3        1 UNL1     -0.4436
     32 C         -4.765469   2.369825   3.761413 C.3        1 UNL1     0.3143
     33 C         -3.843846   3.512409   3.385479 C.2        1 UNL1     0.2504
     34 C         -7.936464   4.493993   5.533439 C.3        1 UNL1     -0.0327
     35 O         -3.974091   1.413899   4.477777 O.2        1 UNL1     -0.4528
     36 C         -2.986063   -1.230027   1.939758 C.3        1 UNL1     0.0854
     37 C         -2.20854   -1.062456   0.57781 C.3        1 UNL1     0.0236
     38 C         -0.896082   -1.972439   0.432453 C.3        1 UNL1     0.1131
     39 C         0.190835   -1.972025   1.581749 C.3        1 UNL1     0.0200
     40 C         0.666532   -0.540753   2.294218 C.3        1 UNL1     0.0661
     41 C         1.148338   0.864683   1.475548 C.3        1 UNL1     0.0091
     42 C         0.955396   2.631618   1.929548 C.3        1 UNL1     0.0661
     43 C         -5.660965   8.215079   2.967863 C.2        1 UNL1     0.2131
     44 O         -6.656513   8.915377   2.933132 O.2        1 UNL1     -0.2851
     45 O         -7.602912   7.335354   4.789898 O.3        1 UNL1     -0.5056
     46 O         -2.693422   3.460826   3.011691 O.2        1 UNL1     -0.2836
     47 C         1.624359   3.684106   4.288059 C.3        1 UNL1     -0.0566
     48 O         2.363941   2.981501   1.625083 O.3        1 UNL1     -0.3909
     49 C         0.760269   0.738405   0.019199 C.3        1 UNL1     -0.0577
     50 O         -0.19115   -0.205349   3.366416 O.3        1 UNL1     -0.3910
     51 O         -2.347569   -2.015417   2.921043 O.3        1 UNL1     -0.3753
     52 C         -2.260861   0.410392   0.055384 C.3        1 UNL1     -0.0564
     53 O         -0.380904   -2.063083   -0.97421 O.3        1 UNL1     -0.4608
     54 C         0.418044   -3.062187   -1.465536 C.2        1 UNL1     0.3042
     55 O         0.314525   -3.63677   -2.548577 O.2        1 UNL1     -0.2512
     56 C         1.564325   -3.415224   -0.561037 C.3        1 UNL1     0.0332
     57 C         -0.120047   -3.214309   2.540006 C.3        1 UNL1     -0.0567
     58 C         -5.583414   1.957964   2.515273 C.3        1 UNL1     0.0210
     59 C         -1.27155   -1.368987   3.599405 C.3        1 UNL1     0.0372
     60 C         -3.380372   0.044409   2.599677 C.2        1 UNL1     -0.0208
     61 C         -3.292527   0.420038   3.876364 C.2        1 UNL1     0.0882
     62 H         -0.316621   3.581184   3.390104 H        1 UNL1     0.0365
     63 H         -1.085617   5.425948   3.809292 H        1 UNL1     0.0576
     64 H         0.900288   7.657573   3.052454 H        1 UNL1     0.0615
     65 H         -2.031513   7.695137   4.129948 H        1 UNL1     0.0622
     66 H         -3.925326   -1.728616   1.661836 H        1 UNL1     0.0645
     67 H         -2.877563   -1.520987   -0.171001 H        1 UNL1     0.0362
     68 H         -1.359132   -2.970317   0.469144 H        1 UNL1     0.0741
     69 H         1.119284   -2.35838   1.18285 H        1 UNL1     0.0359
     70 H         1.602791   -0.872694   2.782372 H        1 UNL1     0.0600
     71 H         2.241516   0.693477   1.424488 H        1 UNL1     0.0348
     72 H         0.832366   2.063483   2.863037 H        1 UNL1     0.0602
     73 H         -3.902186   0.651821   1.902534 H        1 UNL1     0.0628
     74 H         -2.726913   -0.115897   4.639314 H        1 UNL1     0.1022
     75 H         -0.020073   11.130302   3.20722 H        1 UNL1     0.0279
     76 H         -1.258807   11.29343   2.027293 H        1 UNL1     0.0279
     77 H         -1.486422   11.845439   3.735736 H        1 UNL1     0.0279
     78 H         -3.318107   10.130515   1.691432 H        1 UNL1     0.1553
     79 H         -2.099386   8.838754   0.812627 H        1 UNL1     0.1484
     80 H         -2.336513   5.628831   -1.207189 H        1 UNL1     0.0317
     81 H         -3.752925   6.499475   -0.636503 H        1 UNL1     0.0317
     82 H         -2.675775   8.706023   -1.150893 H        1 UNL1     0.0428
     83 H         -2.773743   7.658839   -2.549289 H        1 UNL1     0.0428
     84 H         0.984202   7.834649   -0.561808 H        1 UNL1     0.0428
     85 H         -0.272503   8.832743   0.081328 H        1 UNL1     0.0428
     86 H         0.156549   6.666316   1.242087 H        1 UNL1     0.0317
     87 H         -0.206296   5.739633   -0.140647 H        1 UNL1     0.0317
     88 H         0.647101   9.028379   -2.501335 H        1 UNL1     0.0429
     89 H         -0.3832   8.273297   -3.719763 H        1 UNL1     0.0429
     90 H         -2.313655   9.724757   -2.765848 H        1 UNL1     0.0308
     91 H         -0.464538   11.756437   -1.665544 H        1 UNL1     0.0233
     92 H         -1.980744   11.112048   -0.986295 H        1 UNL1     0.0233
     93 H         -0.462208   10.294088   -0.686976 H        1 UNL1     0.0233
     94 H         0.033492   11.20198   -3.976882 H        1 UNL1     0.0233
     95 H         -1.127822   10.201934   -4.863216 H        1 UNL1     0.0233
     96 H         -1.674298   11.683396   -4.0443 H        1 UNL1     0.0233
     97 H         -8.354886   5.167354   6.275558 H        1 UNL1     0.0280
     98 H         -8.756641   4.262392   4.841394 H        1 UNL1     0.0280
     99 H         -7.62924   3.56605   6.042978 H        1 UNL1     0.0280
     100 H         -8.05062   7.113485   5.587365 H        1 UNL1     0.2922
     101 H         2.241717   2.833809   3.999059 H        1 UNL1     0.0236
     102 H         1.121656   3.519573   5.24053 H        1 UNL1     0.0236
     103 H         2.342748   4.497031   4.486206 H        1 UNL1     0.0236
     104 H         2.930372   2.281214   2.004194 H        1 UNL1     0.2098
     105 H         0.35289   1.64682   -0.417421 H        1 UNL1     0.0234
     106 H         1.5364   0.324909   -0.62467 H        1 UNL1     0.0234
     107 H         0.0   0.0   -0.0 H        1 UNL1     0.0234
     108 H         -1.086881   -0.087654   2.995495 H        1 UNL1     0.2098
     109 H         -3.018901   0.547046   -0.728461 H        1 UNL1     0.0234
     110 H         -2.421523   1.144324   0.852425 H        1 UNL1     0.0234
     111 H         -1.307301   0.71339   -0.397235 H        1 UNL1     0.0234
     112 H         1.2063   -4.028627   0.27137 H        1 UNL1     0.0342
     113 H         2.36974   -3.915361   -1.096773 H        1 UNL1     0.0342
     114 H         1.970709   -2.484057   -0.142775 H        1 UNL1     0.0342
     115 H         0.751753   -3.487487   3.150356 H        1 UNL1     0.0234
     116 H         -0.958803   -3.051635   3.219767 H        1 UNL1     0.0234
     117 H         -0.301686   -4.156189   1.994286 H        1 UNL1     0.0234
     118 H         -5.999507   2.832353   1.98488 H        1 UNL1     0.0309
     119 H         -5.011536   1.348875   1.808045 H        1 UNL1     0.0309
     120 H         -6.472429   1.371179   2.771089 H        1 UNL1     0.0309
     121 H         -1.657367   -0.441014   4.020556 H        1 UNL1     0.0524
     122 H         -0.879067   -1.97417   4.43352 H        1 UNL1     0.0524
     123 H         -0.462608   -1.157982   2.90573 H        1 UNL1     0.0524
@<TRIPOS>BOND
     1     1     2    1
     2     1    42    1
     3     2     3    2
     4     3     4    1
     5     4     5    2
     6     5     7    1
     7     6    75    1
     8     6    76    1
     9     6    77    1
    10     7     9   am
    11     9    10    1
    12    10    11    2
    13    10    43    1
    14    11    14    1
    15    11    15    1
    16    12    13   ar
    17    12    27   ar
    18    12    43    1
    19    13    14    1
    20    13    30   ar
    21    14    17    2
    22    15    16    1
    23    16    17    1
    24    16    18    1
    25    16    22    1
    26    18    19    1
    27    19    20    1
    28    20    21    1
    29    21    22    1
    30    23    24    1
    31    23    88    1
    32    23    89    1
    33    24    25    1
    34    24    26    1
    35    24    90    1
    36    25    91    1
    37    25    92    1
    38    25    93    1
    39    26    94    1
    40    26    95    1
    41    26    96    1
    42    27    28   ar
    43    28    29   ar
    44    29    30   ar
    45    29    31    1
    46    30    33    1
    47    31    32    1
    48    32    33    1
    49    32    35    1
    50    34    97    1
    51    34    98    1
    52    34    99    1
    53    35    61    1
    54    36    37    1
    55    36    60    1
    56    37    38    1
    57    38    39    1
    58    39    40    1
    59    40    41    1
    60    41    42    1
    61    45   100    1
    62    47   101    1
    63    47   102    1
    64    47   103    1
    65    48   104    1
    66    49   105    1
    67    49   106    1
    68    49   107    1
    69    50   108    1
    70    51    59    1
    71    52   109    1
    72    52   110    1
    73    52   111    1
    74    53    54    1
    75    54    55    2
    76    54    56    1
    77    56   112    1
    78    56   113    1
    79    56   114    1
    80    57   115    1
    81    57   116    1
    82    57   117    1
    83    58   118    1
    84    58   119    1
    85    58   120    1
    86    59   121    1
    87    59   122    1
    88    59   123    1
    89    60    61    2
    90     1    47    1
    91     1    62    1
    92     2    63    1
    93     3    64    1
    94     4    65    1
    95     5     6    1
    96     7     8    2
    97     9    78    1
    98    15    79    1
    99    18    80    1
   100    18    81    1
   101    19    82    1
   102    19    83    1
   103    20    23    1
   104    21    84    1
   105    21    85    1
   106    22    86    1
   107    22    87    1
   108    27    45    1
   109    28    34    1
   110    32    58    1
   111    33    46    2
   112    36    51    1
   113    36    66    1
   114    37    52    1
   115    37    67    1
   116    38    53    1
   117    38    68    1
   118    42    48    1
   119    42    72    1
   120    43    44    2
   121    60    73    1
   122    61    74    1
   123    39    69    1
   124    39    57    1
   125    40    70    1
   126    40    50    1
   127    41    71    1
   128    41    49    1
