@<TRIPOS>MOLECULE
*****
 123 128 0 0 0
SMALL
GASTEIGER

@<TRIPOS>ATOM
     1 C         5.115054   1.905839   0.464449 C.3        1 UNL1     0.0009
     2 C         6.504312   2.793748   -0.383264 C.2        1 UNL1     -0.0787
     3 C         7.779397   2.767125   -1.068463 C.2        1 UNL1     -0.0649
     4 C         8.593399   4.057459   -1.802491 C.2        1 UNL1     -0.0542
     5 C         9.586593   4.417264   -2.746516 C.2        1 UNL1     0.0115
     6 C         10.727296   3.862768   -3.64354 C.3        1 UNL1     -0.0348
     7 C         9.611037   5.918546   -3.314446 C.2        1 UNL1     0.2441
     8 O         10.405231   6.764075   -2.926036 O.2        1 UNL1     -0.2702
     9 N         8.835938   6.12417   -4.469042 N.am        1 UNL1     -0.2772
     10 C         7.542857   6.448083   -4.127949 C.2        1 UNL1     0.1049
     11 C         6.742744   5.434573   -3.850753 C.2        1 UNL1     0.0801
     12 C         6.198999   7.961174   -2.657597 C.ar        1 UNL1     0.0753
     13 C         5.494325   6.790952   -2.230251 C.ar        1 UNL1     0.0305
     14 C         5.656384   5.508634   -2.911756 C.2        1 UNL1     0.0924
     15 N         6.918504   4.116555   -4.046874 N.pl3        1 UNL1     -0.3170
     16 C         5.679491   3.456362   -3.73184 C.3        1 UNL1     0.1275
     17 N         5.017971   4.358004   -2.718352 N.2        1 UNL1     -0.2557
     18 C         4.806702   3.512369   -4.981962 C.3        1 UNL1     0.0016
     19 C         5.573096   2.890414   -6.138422 C.3        1 UNL1     0.0026
     20 N         5.906182   1.515332   -5.793123 N.3        1 UNL1     -0.3018
     21 C         6.693451   1.354987   -4.568841 C.3        1 UNL1     0.0026
     22 C         5.902837   1.982555   -3.419501 C.3        1 UNL1     0.0016
     23 C         6.368442   0.744513   -6.930135 C.3        1 UNL1     0.0012
     24 C         5.210332   0.472241   -7.902969 C.3        1 UNL1     -0.0339
     25 C         5.527281   0.993148   -9.314442 C.3        1 UNL1     -0.0615
     26 C         4.87825   -1.009765   -7.915547 C.3        1 UNL1     -0.0615
     27 C         5.949354   9.204592   -2.081657 C.ar        1 UNL1     0.1347
     28 C         4.993873   9.408304   -1.102061 C.ar        1 UNL1     0.0342
     29 C         4.3471   8.233644   -0.662718 C.ar        1 UNL1     0.1435
     30 C         4.612607   6.97564   -1.205079 C.ar        1 UNL1     0.0774
     31 O         3.314746   8.28089   0.20735 O.3        1 UNL1     -0.4436
     32 C         2.64326   7.022859   0.042016 C.3        1 UNL1     0.3143
     33 C         3.689375   6.087601   -0.529953 C.2        1 UNL1     0.2504
     34 C         4.496741   10.74238   -0.619154 C.3        1 UNL1     -0.0327
     35 O         2.320308   6.537139   1.350844 O.2        1 UNL1     -0.4528
     36 C         -0.844526   4.480898   0.946139 C.3        1 UNL1     0.0854
     37 C         -1.109833   3.232402   0.019643 C.3        1 UNL1     0.0236
     38 C         -1.645657   1.927021   0.781625 C.3        1 UNL1     0.1131
     39 C         -0.87955   1.393395   2.058572 C.3        1 UNL1     0.0200
     40 C         0.786697   1.31702   2.073604 C.3        1 UNL1     0.0661
     41 C         1.76033   0.620096   0.871962 C.3        1 UNL1     0.0091
     42 C         3.442912   1.068943   0.295023 C.3        1 UNL1     0.0661
     43 C         7.140547   7.823043   -3.796309 C.2        1 UNL1     0.2131
     44 O         7.492076   8.755628   -4.495917 O.2        1 UNL1     -0.2851
     45 O         6.710903   10.284647   -2.523205 O.3        1 UNL1     -0.5056
     46 O         3.757563   4.88281   -0.431551 O.2        1 UNL1     -0.2836
     47 C         5.549832   1.456089   1.88525 C.3        1 UNL1     -0.0566
     48 O         3.951218   -0.32364   0.33313 O.3        1 UNL1     -0.3909
     49 C         0.91871   0.384955   -0.362493 C.3        1 UNL1     -0.0577
     50 O         1.341084   2.548452   2.490682 O.3        1 UNL1     -0.3910
     51 O         -0.940393   4.249927   2.333544 O.3        1 UNL1     -0.3753
     52 C         -0.0764   3.146244   -1.150631 C.3        1 UNL1     -0.0564
     53 O         -2.217276   0.887372   -0.137455 O.3        1 UNL1     -0.4608
     54 C         -2.36055   -0.443031   0.158229 C.2        1 UNL1     0.3042
     55 O         -1.651431   -1.373434   -0.223005 O.2        1 UNL1     -0.2512
     56 C         -3.493731   -0.730812   1.101519 C.3        1 UNL1     0.0332
     57 C         -1.609556   1.998258   3.346752 C.3        1 UNL1     -0.0567
     58 C         1.543153   7.250579   -1.020735 C.3        1 UNL1     0.0210
     59 C         -1.291845   5.394969   3.108931 C.3        1 UNL1     0.0372
     60 C         0.453524   5.171274   0.714606 C.2        1 UNL1     -0.0208
     61 C         1.359974   5.621799   1.583007 C.2        1 UNL1     0.0882
     62 H         4.59972   2.866453   0.584296 H        1 UNL1     0.0365
     63 H         6.195796   3.832276   -0.24634 H        1 UNL1     0.0576
     64 H         8.273819   1.826532   -1.321324 H        1 UNL1     0.0615
     65 H         8.073552   4.942141   -1.424894 H        1 UNL1     0.0622
     66 H         -1.624155   5.203193   0.665933 H        1 UNL1     0.0645
     67 H         -1.996331   3.520825   -0.571537 H        1 UNL1     0.0362
     68 H         -2.604963   2.314244   1.15754 H        1 UNL1     0.0741
     69 H         -1.165644   0.364463   2.231366 H        1 UNL1     0.0359
     70 H         0.938748   0.639235   2.935316 H        1 UNL1     0.0600
     71 H         1.852753   -0.409109   1.270901 H        1 UNL1     0.0348
     72 H         3.330931   1.526535   1.288696 H        1 UNL1     0.0602
     73 H         0.548025   5.400284   -0.317804 H        1 UNL1     0.0628
     74 H         1.366768   5.382756   2.646985 H        1 UNL1     0.1022
     75 H         10.768439   2.748553   -3.581371 H        1 UNL1     0.0279
     76 H         10.630181   4.03428   -4.713223 H        1 UNL1     0.0279
     77 H         11.727555   4.137391   -3.277801 H        1 UNL1     0.0279
     78 H         8.802755   5.266361   -5.015979 H        1 UNL1     0.1553
     79 H         7.592061   3.733246   -4.684314 H        1 UNL1     0.1484
     80 H         3.869702   2.976436   -4.788125 H        1 UNL1     0.0317
     81 H         4.533043   4.545357   -5.222167 H        1 UNL1     0.0317
     82 H         6.477039   3.466778   -6.3846 H        1 UNL1     0.0428
     83 H         4.933317   2.942377   -7.019917 H        1 UNL1     0.0428
     84 H         6.861738   0.310331   -4.289228 H        1 UNL1     0.0428
     85 H         7.705643   1.768717   -4.676601 H        1 UNL1     0.0428
     86 H         6.442392   1.730601   -2.525416 H        1 UNL1     0.0317
     87 H         4.946133   1.460937   -3.29408 H        1 UNL1     0.0317
     88 H         7.133428   1.332965   -7.45341 H        1 UNL1     0.0429
     89 H         6.845242   -0.191002   -6.610374 H        1 UNL1     0.0429
     90 H         4.308494   0.978186   -7.538388 H        1 UNL1     0.0308
     91 H         6.536493   0.707972   -9.626321 H        1 UNL1     0.0233
     92 H         4.805837   0.608573   -10.03917 H        1 UNL1     0.0233
     93 H         5.471637   2.08661   -9.378321 H        1 UNL1     0.0233
     94 H         4.357725   -1.272337   -8.84288 H        1 UNL1     0.0233
     95 H         5.798106   -1.599212   -7.866775 H        1 UNL1     0.0233
     96 H         4.238964   -1.282637   -7.071259 H        1 UNL1     0.0233
     97 H         3.661502   10.641742   0.067489 H        1 UNL1     0.0280
     98 H         5.269469   11.298946   -0.07291 H        1 UNL1     0.0280
     99 H         4.165732   11.34643   -1.479765 H        1 UNL1     0.0280
     100 H         6.21139   11.049434   -2.749503 H        1 UNL1     0.2922
     101 H         4.686478   1.075684   2.430749 H        1 UNL1     0.0236
     102 H         6.073546   2.234143   2.439632 H        1 UNL1     0.0236
     103 H         6.256091   0.609688   1.853696 H        1 UNL1     0.0236
     104 H         4.301828   -0.48519   1.230874 H        1 UNL1     0.2098
     105 H         0.70043   1.28297   -0.934973 H        1 UNL1     0.0234
     106 H         1.285585   -0.402668   -1.020506 H        1 UNL1     0.0234
     107 H         0.0   -0.0   0.0 H        1 UNL1     0.0234
     108 H         1.159387   3.201378   1.787516 H        1 UNL1     0.2098
     109 H         0.958614   3.078668   -0.787462 H        1 UNL1     0.0234
     110 H         -0.276811   2.320561   -1.841881 H        1 UNL1     0.0234
     111 H         -0.110273   4.040478   -1.787141 H        1 UNL1     0.0234
     112 H         -3.539625   -1.803678   1.311753 H        1 UNL1     0.0342
     113 H         -3.416095   -0.15515   2.022622 H        1 UNL1     0.0342
     114 H         -4.432404   -0.443921   0.607808 H        1 UNL1     0.0342
     115 H         -2.690849   1.803872   3.332341 H        1 UNL1     0.0234
     116 H         -1.220858   1.621755   4.295018 H        1 UNL1     0.0234
     117 H         -1.59179   3.101048   3.385212 H        1 UNL1     0.0234
     118 H         0.535595   7.295305   -0.571477 H        1 UNL1     0.0309
     119 H         1.707052   8.149901   -1.622864 H        1 UNL1     0.0309
     120 H         1.466381   6.419999   -1.73091 H        1 UNL1     0.0309
     121 H         -0.899189   5.245489   4.114334 H        1 UNL1     0.0524
     122 H         -0.845047   6.321911   2.712463 H        1 UNL1     0.0524
     123 H         -2.371582   5.509879   3.141458 H        1 UNL1     0.0524
@<TRIPOS>BOND
     1     1     2    1
     2     1    42    1
     3     2     3    2
     4     3     4    1
     5     4     5    2
     6     5     7    1
     7     6    75    1
     8     6    76    1
     9     6    77    1
    10     7     9   am
    11     9    10    1
    12    10    11    2
    13    10    43    1
    14    11    14    1
    15    11    15    1
    16    12    13   ar
    17    12    27   ar
    18    12    43    1
    19    13    14    1
    20    13    30   ar
    21    14    17    2
    22    15    16    1
    23    16    17    1
    24    16    18    1
    25    16    22    1
    26    18    19    1
    27    19    20    1
    28    20    21    1
    29    21    22    1
    30    23    24    1
    31    23    88    1
    32    23    89    1
    33    24    25    1
    34    24    26    1
    35    24    90    1
    36    25    91    1
    37    25    92    1
    38    25    93    1
    39    26    94    1
    40    26    95    1
    41    26    96    1
    42    27    28   ar
    43    28    29   ar
    44    29    30   ar
    45    29    31    1
    46    30    33    1
    47    31    32    1
    48    32    33    1
    49    32    35    1
    50    34    97    1
    51    34    98    1
    52    34    99    1
    53    35    61    1
    54    36    37    1
    55    36    60    1
    56    37    38    1
    57    38    39    1
    58    39    40    1
    59    40    41    1
    60    41    42    1
    61    45   100    1
    62    47   101    1
    63    47   102    1
    64    47   103    1
    65    48   104    1
    66    49   105    1
    67    49   106    1
    68    49   107    1
    69    50   108    1
    70    51    59    1
    71    52   109    1
    72    52   110    1
    73    52   111    1
    74    53    54    1
    75    54    55    2
    76    54    56    1
    77    56   112    1
    78    56   113    1
    79    56   114    1
    80    57   115    1
    81    57   116    1
    82    57   117    1
    83    58   118    1
    84    58   119    1
    85    58   120    1
    86    59   121    1
    87    59   122    1
    88    59   123    1
    89    60    61    2
    90     1    47    1
    91     1    62    1
    92     2    63    1
    93     3    64    1
    94     4    65    1
    95     5     6    1
    96     7     8    2
    97     9    78    1
    98    15    79    1
    99    18    80    1
   100    18    81    1
   101    19    82    1
   102    19    83    1
   103    20    23    1
   104    21    84    1
   105    21    85    1
   106    22    86    1
   107    22    87    1
   108    27    45    1
   109    28    34    1
   110    32    58    1
   111    33    46    2
   112    36    51    1
   113    36    66    1
   114    37    52    1
   115    37    67    1
   116    38    53    1
   117    38    68    1
   118    42    48    1
   119    42    72    1
   120    43    44    2
   121    60    73    1
   122    61    74    1
   123    39    69    1
   124    39    57    1
   125    40    70    1
   126    40    50    1
   127    41    71    1
   128    41    49    1
