@<TRIPOS>MOLECULE
*****
 123 128 0 0 0
SMALL
GASTEIGER

@<TRIPOS>ATOM
     1 C         5.166181   1.752062   0.490346 C.3        1 UNL1     0.0009
     2 C         6.601842   2.559971   -0.360063 C.2        1 UNL1     -0.0787
     3 C         7.88353   2.463326   -1.026383 C.2        1 UNL1     -0.0649
     4 C         8.75963   3.699714   -1.781467 C.2        1 UNL1     -0.0542
     5 C         9.779025   3.993871   -2.720287 C.2        1 UNL1     0.0115
     6 C         10.907394   3.369979   -3.586812 C.3        1 UNL1     -0.0348
     7 C         9.872869   5.47763   -3.325797 C.2        1 UNL1     0.2441
     8 O         10.696216   6.299706   -2.947888 O.2        1 UNL1     -0.2702
     9 N         9.121994   5.684782   -4.496022 N.am        1 UNL1     -0.2772
     10 C         7.839083   6.070165   -4.181473 C.2        1 UNL1     0.1049
     11 C         6.994234   5.097838   -3.88987 C.2        1 UNL1     0.0801
     12 C         6.539919   7.674742   -2.769084 C.ar        1 UNL1     0.0753
     13 C         5.781993   6.545877   -2.322071 C.ar        1 UNL1     0.0305
     14 C         5.899757   5.240725   -2.968414 C.2        1 UNL1     0.0924
     15 N         7.117905   3.769075   -4.049935 N.pl3        1 UNL1     -0.3170
     16 C         5.848679   3.168619   -3.735657 C.3        1 UNL1     0.1275
     17 N         5.211878   4.122636   -2.75481 N.2        1 UNL1     -0.2557
     18 C         4.995263   3.227853   -4.998937 C.3        1 UNL1     0.0016
     19 C         5.750256   2.545181   -6.128333 C.3        1 UNL1     0.0026
     20 N         6.021714   1.167039   -5.743544 N.3        1 UNL1     -0.3018
     21 C         6.785713   1.006424   -4.504643 C.3        1 UNL1     0.0026
     22 C         6.006848   1.695509   -3.382848 C.3        1 UNL1     0.0016
     23 C         6.466454   0.348648   -6.853988 C.3        1 UNL1     0.0012
     24 C         5.310817   0.098884   -7.83576 C.3        1 UNL1     -0.0339
     25 C         5.34521   1.091879   -9.009147 C.3        1 UNL1     -0.0615
     26 C         5.340929   -1.340252   -8.320282 C.3        1 UNL1     -0.0615
     27 C         6.334416   8.941887   -2.228503 C.ar        1 UNL1     0.1347
     28 C         5.375525   9.209962   -1.267922 C.ar        1 UNL1     0.0342
     29 C         4.675106   8.074603   -0.80799 C.ar        1 UNL1     0.1435
     30 C         4.895418   6.793112   -1.314413 C.ar        1 UNL1     0.0774
     31 O         3.634371   8.186703   0.046007 O.3        1 UNL1     -0.4436
     32 C         2.913671   6.953376   -0.096711 C.3        1 UNL1     0.3143
     33 C         3.927582   5.961491   -0.629967 C.2        1 UNL1     0.2504
     34 C         4.927722   10.575385   -0.826115 C.3        1 UNL1     -0.0327
     35 O         2.553947   6.515462   1.219375 O.2        1 UNL1     -0.4528
     36 C         -0.68764   4.580827   0.82265 C.3        1 UNL1     0.0854
     37 C         -0.99226   3.320606   -0.075444 C.3        1 UNL1     0.0236
     38 C         -1.591428   2.058515   0.711872 C.3        1 UNL1     0.1131
     39 C         -0.864682   1.527294   2.012608 C.3        1 UNL1     0.0200
     40 C         0.796649   1.383116   2.052984 C.3        1 UNL1     0.0661
     41 C         1.756176   0.615896   0.883243 C.3        1 UNL1     0.0091
     42 C         3.463222   0.980275   0.318776 C.3        1 UNL1     0.0661
     43 C         7.489667   7.468608   -3.890578 C.2        1 UNL1     0.2131
     44 O         7.888496   8.367515   -4.608658 O.2        1 UNL1     -0.2851
     45 O         7.145621   9.977991   -2.686621 O.3        1 UNL1     -0.5056
     46 O         3.944636   4.757881   -0.500022 O.2        1 UNL1     -0.2836
     47 C         5.563506   1.321933   1.928089 C.3        1 UNL1     -0.0566
     48 O         3.913004   -0.430508   0.399407 O.3        1 UNL1     -0.3909
     49 C         0.921663   0.383455   -0.356537 C.3        1 UNL1     -0.0577
     50 O         1.395991   2.601213   2.44637 O.3        1 UNL1     -0.3910
     51 O         -0.810984   4.390098   2.213995 O.3        1 UNL1     -0.3753
     52 C         0.051845   3.161798   -1.228516 C.3        1 UNL1     -0.0564
     53 O         -2.193538   1.01964   -0.188422 O.3        1 UNL1     -0.4608
     54 C         -2.42671   -0.287539   0.150464 C.2        1 UNL1     0.3042
     55 O         -1.856959   -1.285893   -0.288298 O.2        1 UNL1     -0.2512
     56 C         -3.466138   -0.454785   1.222066 C.3        1 UNL1     0.0332
     57 C         -1.585738   2.194823   3.274613 C.3        1 UNL1     -0.0567
     58 C         1.837814   7.198303   -1.180257 C.3        1 UNL1     0.0210
     59 C         -1.124857   5.568336   2.95501 C.3        1 UNL1     0.0372
     60 C         0.640731   5.21118   0.591902 C.2        1 UNL1     -0.0208
     61 C         1.553669   5.646587   1.461218 C.2        1 UNL1     0.0882
     62 H         4.689474   2.735776   0.578484 H        1 UNL1     0.0365
     63 H         6.334758   3.613476   -0.25393 H        1 UNL1     0.0576
     64 H         8.3419   1.49701   -1.24828 H        1 UNL1     0.0615
     65 H         8.271929   4.614467   -1.433821 H        1 UNL1     0.0622
     66 H         -1.433046   5.326941   0.513249 H        1 UNL1     0.0645
     67 H         -1.858326   3.629661   -0.68616 H        1 UNL1     0.0362
     68 H         -2.538714   2.49436   1.064308 H        1 UNL1     0.0741
     69 H         -1.195276   0.515787   2.207466 H        1 UNL1     0.0359
     70 H         0.909352   0.722283   2.933699 H        1 UNL1     0.0600
     71 H         1.800794   -0.40552   1.309475 H        1 UNL1     0.0348
     72 H         3.35735   1.46773   1.298824 H        1 UNL1     0.0602
     73 H         0.75802   5.409228   -0.444568 H        1 UNL1     0.0628
     74 H         1.536756   5.435186   2.530919 H        1 UNL1     0.1022
     75 H         10.950786   2.264222   -3.436969 H        1 UNL1     0.0279
     76 H         10.794705   3.455998   -4.665223 H        1 UNL1     0.0279
     77 H         11.91247   3.672854   -3.258499 H        1 UNL1     0.0279
     78 H         9.060496   4.815135   -5.021389 H        1 UNL1     0.1553
     79 H         7.783269   3.342057   -4.667899 H        1 UNL1     0.1484
     80 H         4.034476   2.735985   -4.804722 H        1 UNL1     0.0317
     81 H         4.767673   4.264599   -5.269145 H        1 UNL1     0.0317
     82 H         6.680369   3.077428   -6.376359 H        1 UNL1     0.0428
     83 H         5.124676   2.600402   -7.019764 H        1 UNL1     0.0428
     84 H         6.907037   -0.036635   -4.196227 H        1 UNL1     0.0428
     85 H         7.815454   1.375387   -4.608654 H        1 UNL1     0.0428
     86 H         6.523869   1.444966   -2.475155 H        1 UNL1     0.0317
     87 H         5.027856   1.21697   -3.25766 H        1 UNL1     0.0317
     88 H         7.261839   0.891463   -7.381254 H        1 UNL1     0.0429
     89 H         6.89999   -0.596999   -6.503883 H        1 UNL1     0.0429
     90 H         4.357912   0.216808   -7.306346 H        1 UNL1     0.0308
     91 H         6.298192   1.042257   -9.544371 H        1 UNL1     0.0233
     92 H         4.530186   0.891693   -9.708626 H        1 UNL1     0.0233
     93 H         5.218352   2.130663   -8.681015 H        1 UNL1     0.0233
     94 H         4.646192   -1.471738   -9.156875 H        1 UNL1     0.0233
     95 H         6.344498   -1.595078   -8.672239 H        1 UNL1     0.0233
     96 H         5.05892   -2.035243   -7.524401 H        1 UNL1     0.0233
     97 H         4.128446   10.52458   -0.092762 H        1 UNL1     0.0280
     98 H         5.737781   11.142303   -0.348975 H        1 UNL1     0.0280
     99 H         4.562003   11.143573   -1.697038 H        1 UNL1     0.0280
     100 H         6.677837   10.728949   -3.007343 H        1 UNL1     0.2922
     101 H         4.701273   0.887234   2.433309 H        1 UNL1     0.0236
     102 H         6.013862   2.127268   2.507397 H        1 UNL1     0.0236
     103 H         6.320427   0.519898   1.926128 H        1 UNL1     0.0236
     104 H         4.332702   -0.556821   1.272831 H        1 UNL1     0.2098
     105 H         0.70865   1.282381   -0.929571 H        1 UNL1     0.0234
     106 H         1.291012   -0.40433   -1.01297 H        1 UNL1     0.0234
     107 H         0.0   -0.0   0.0 H        1 UNL1     0.0234
     108 H         1.201987   3.258104   1.750221 H        1 UNL1     0.2098
     109 H         1.078376   3.061321   -0.849242 H        1 UNL1     0.0234
     110 H         -0.173523   2.327344   -1.901301 H        1 UNL1     0.0234
     111 H         0.063229   4.039832   -1.887965 H        1 UNL1     0.0234
     112 H         -3.588539   -1.515925   1.459439 H        1 UNL1     0.0342
     113 H         -3.229324   0.120693   2.115703 H        1 UNL1     0.0342
     114 H         -4.424032   -0.084332   0.831722 H        1 UNL1     0.0342
     115 H         -2.655137   1.945625   3.313013 H        1 UNL1     0.0234
     116 H         -1.148632   1.914791   4.235118 H        1 UNL1     0.0234
     117 H         -1.625282   3.296679   3.226734 H        1 UNL1     0.0234
     118 H         0.935888   7.682769   -0.766942 H        1 UNL1     0.0309
     119 H         2.205896   7.788457   -2.0255 H        1 UNL1     0.0309
     120 H         1.450947   6.266339   -1.606734 H        1 UNL1     0.0309
     121 H         -0.304457   6.272282   2.818037 H        1 UNL1     0.0524
     122 H         -2.045219   6.056846   2.593999 H        1 UNL1     0.0524
     123 H         -1.242174   5.329797   4.008305 H        1 UNL1     0.0524
@<TRIPOS>BOND
     1     1     2    1
     2     1    42    1
     3     2     3    2
     4     3     4    1
     5     4     5    2
     6     5     7    1
     7     6    75    1
     8     6    76    1
     9     6    77    1
    10     7     9   am
    11     9    10    1
    12    10    11    2
    13    10    43    1
    14    11    14    1
    15    11    15    1
    16    12    13   ar
    17    12    27   ar
    18    12    43    1
    19    13    14    1
    20    13    30   ar
    21    14    17    2
    22    15    16    1
    23    16    17    1
    24    16    18    1
    25    16    22    1
    26    18    19    1
    27    19    20    1
    28    20    21    1
    29    21    22    1
    30    23    24    1
    31    23    88    1
    32    23    89    1
    33    24    25    1
    34    24    26    1
    35    24    90    1
    36    25    91    1
    37    25    92    1
    38    25    93    1
    39    26    94    1
    40    26    95    1
    41    26    96    1
    42    27    28   ar
    43    28    29   ar
    44    29    30   ar
    45    29    31    1
    46    30    33    1
    47    31    32    1
    48    32    33    1
    49    32    35    1
    50    34    97    1
    51    34    98    1
    52    34    99    1
    53    35    61    1
    54    36    37    1
    55    36    60    1
    56    37    38    1
    57    38    39    1
    58    39    40    1
    59    40    41    1
    60    41    42    1
    61    45   100    1
    62    47   101    1
    63    47   102    1
    64    47   103    1
    65    48   104    1
    66    49   105    1
    67    49   106    1
    68    49   107    1
    69    50   108    1
    70    51    59    1
    71    52   109    1
    72    52   110    1
    73    52   111    1
    74    53    54    1
    75    54    55    2
    76    54    56    1
    77    56   112    1
    78    56   113    1
    79    56   114    1
    80    57   115    1
    81    57   116    1
    82    57   117    1
    83    58   118    1
    84    58   119    1
    85    58   120    1
    86    59   121    1
    87    59   122    1
    88    59   123    1
    89    60    61    2
    90     1    47    1
    91     1    62    1
    92     2    63    1
    93     3    64    1
    94     4    65    1
    95     5     6    1
    96     7     8    2
    97     9    78    1
    98    15    79    1
    99    18    80    1
   100    18    81    1
   101    19    82    1
   102    19    83    1
   103    20    23    1
   104    21    84    1
   105    21    85    1
   106    22    86    1
   107    22    87    1
   108    27    45    1
   109    28    34    1
   110    32    58    1
   111    33    46    2
   112    36    51    1
   113    36    66    1
   114    37    52    1
   115    37    67    1
   116    38    53    1
   117    38    68    1
   118    42    48    1
   119    42    72    1
   120    43    44    2
   121    60    73    1
   122    61    74    1
   123    39    69    1
   124    39    57    1
   125    40    70    1
   126    40    50    1
   127    41    71    1
   128    41    49    1
