@<TRIPOS>MOLECULE
*****
 123 128 0 0 0
SMALL
GASTEIGER

@<TRIPOS>ATOM
     1 C         5.166239   1.752153   0.489087 C.3        1 UNL1     0.0009
     2 C         6.602541   2.557839   -0.36235 C.2        1 UNL1     -0.0787
     3 C         7.884496   2.459403   -1.027892 C.2        1 UNL1     -0.0649
     4 C         8.761331   3.693943   -1.785143 C.2        1 UNL1     -0.0542
     5 C         9.781242   3.985827   -2.724113 C.2        1 UNL1     0.0115
     6 C         10.909799   3.359779   -3.588835 C.3        1 UNL1     -0.0348
     7 C         9.875833   5.468297   -3.332656 C.2        1 UNL1     0.2441
     8 O         10.699274   6.290891   -2.956081 O.2        1 UNL1     -0.2702
     9 N         9.12555   5.673262   -4.503645 N.am        1 UNL1     -0.2772
     10 C         7.842622   6.059707   -4.190472 C.2        1 UNL1     0.1049
     11 C         6.99733   5.088257   -3.897234 C.2        1 UNL1     0.0801
     12 C         6.543339   7.667623   -2.781996 C.ar        1 UNL1     0.0753
     13 C         5.78485   6.53993   -2.332984 C.ar        1 UNL1     0.0305
     14 C         5.902486   5.233403   -2.976568 C.2        1 UNL1     0.0924
     15 N         7.120647   3.759125   -4.054488 N.pl3        1 UNL1     -0.3170
     16 C         5.851087   3.159728   -3.739537 C.3        1 UNL1     0.1275
     17 N         5.214152   4.11598   -2.760956 N.2        1 UNL1     -0.2557
     18 C         4.998258   3.216616   -5.00332 C.3        1 UNL1     0.0016
     19 C         5.753539   2.531363   -6.130959 C.3        1 UNL1     0.0026
     20 N         6.024382   1.153934   -5.743192 N.3        1 UNL1     -0.3018
     21 C         6.787774   0.995644   -4.503617 C.3        1 UNL1     0.0026
     22 C         6.008626   1.687302   -3.383603 C.3        1 UNL1     0.0016
     23 C         6.469358   0.333101   -6.851737 C.3        1 UNL1     0.0012
     24 C         5.314081   0.081672   -7.833509 C.3        1 UNL1     -0.0339
     25 C         5.349319   1.07222   -9.008936 C.3        1 UNL1     -0.0615
     26 C         5.343949   -1.358475   -8.315032 C.3        1 UNL1     -0.0615
     27 C         6.337999   8.935953   -2.244136 C.ar        1 UNL1     0.1347
     28 C         5.378764   9.206325   -1.284543 C.ar        1 UNL1     0.0342
     29 C         4.677774   8.072146   -0.822574 C.ar        1 UNL1     0.1435
     30 C         4.897903   6.789538   -1.326239 C.ar        1 UNL1     0.0774
     31 O         3.636692   8.186349   0.030721 O.3        1 UNL1     -0.4436
     32 C         2.91566   6.952959   -0.109764 C.3        1 UNL1     0.3143
     33 C         3.929493   5.959647   -0.640506 C.2        1 UNL1     0.2504
     34 C         4.931199   10.572804   -0.845769 C.3        1 UNL1     -0.0327
     35 O         2.555205   6.51789   1.207065 O.2        1 UNL1     -0.4528
     36 C         -0.686823   4.583472   0.812895 C.3        1 UNL1     0.0854
     37 C         -0.991444   3.32149   -0.082721 C.3        1 UNL1     0.0236
     38 C         -1.59137   2.061225   0.706941 C.3        1 UNL1     0.1131
     39 C         -0.865378   1.53247   2.009101 C.3        1 UNL1     0.0200
     40 C         0.795888   1.387845   2.050522 C.3        1 UNL1     0.0661
     41 C         1.755693   0.617895   0.882806 C.3        1 UNL1     0.0091
     42 C         3.46311   0.980557   0.318351 C.3        1 UNL1     0.0661
     43 C         7.493524   7.458862   -3.902633 C.2        1 UNL1     0.2131
     44 O         7.892963   8.35615   -4.622396 O.2        1 UNL1     -0.2851
     45 O         7.149742   9.970845   -2.704036 O.3        1 UNL1     -0.5056
     46 O         3.946102   4.756303   -0.508059 O.2        1 UNL1     -0.2836
     47 C         5.562781   1.324879   1.927897 C.3        1 UNL1     -0.0566
     48 O         3.912403   -0.4302   0.40211 O.3        1 UNL1     -0.3909
     49 C         0.921663   0.38315   -0.356865 C.3        1 UNL1     -0.0577
     50 O         1.395444   2.606563   2.441652 O.3        1 UNL1     -0.3910
     51 O         -0.810853   4.395668   2.204577 O.3        1 UNL1     -0.3753
     52 C         0.053127   3.159958   -1.234992 C.3        1 UNL1     -0.0564
     53 O         -2.193409   1.020679   -0.191469 O.3        1 UNL1     -0.4608
     54 C         -2.427152   -0.28572   0.150021 C.2        1 UNL1     0.3042
     55 O         -1.857525   -1.285164   -0.286414 O.2        1 UNL1     -0.2512
     56 C         -3.467114   -0.450412   1.2215 C.3        1 UNL1     0.0332
     57 C         -1.586787   2.202845   3.269395 C.3        1 UNL1     -0.0567
     58 C         1.840368   7.195984   -1.194298 C.3        1 UNL1     0.0210
     59 C         -1.12468   5.57554   2.943007 C.3        1 UNL1     0.0372
     60 C         0.641853   5.212922   0.581438 C.2        1 UNL1     -0.0208
     61 C         1.554541   5.649837   1.450259 C.2        1 UNL1     0.0882
     62 H         4.689808   2.736201   0.574971 H        1 UNL1     0.0365
     63 H         6.335746   3.611646   -0.258521 H        1 UNL1     0.0576
     64 H         8.342655   1.492483   -1.24758 H        1 UNL1     0.0615
     65 H         8.273768   4.60957   -1.439614 H        1 UNL1     0.0622
     66 H         -1.431851   5.329182   0.501613 H        1 UNL1     0.0645
     67 H         -1.857137   3.629555   -0.694466 H        1 UNL1     0.0362
     68 H         -2.538674   2.498103   1.058046 H        1 UNL1     0.0741
     69 H         -1.196384   0.521475   2.205907 H        1 UNL1     0.0359
     70 H         0.907984   0.728803   2.932655 H        1 UNL1     0.0600
     71 H         1.799793   -0.40265   1.311174 H        1 UNL1     0.0348
     72 H         3.356954   1.470076   1.29734 H        1 UNL1     0.0602
     73 H         0.759671   5.408783   -0.455387 H        1 UNL1     0.0628
     74 H         1.53708   5.44066   2.520389 H        1 UNL1     0.1022
     75 H         10.954847   2.254738   -3.434272 H        1 UNL1     0.0279
     76 H         10.796148   3.441001   -4.667518 H        1 UNL1     0.0279
     77 H         11.91471   3.665458   -3.262621 H        1 UNL1     0.0279
     78 H         9.064009   4.802548   -5.027236 H        1 UNL1     0.1553
     79 H         7.786151   3.330614   -4.671267 H        1 UNL1     0.1484
     80 H         4.037225   2.725459   -4.808518 H        1 UNL1     0.0317
     81 H         4.771121   4.252872   -5.275778 H        1 UNL1     0.0317
     82 H         6.683933   3.062796   -6.37967 H        1 UNL1     0.0428
     83 H         5.128376   2.584936   -7.022784 H        1 UNL1     0.0428
     84 H         6.908624   -0.046812   -4.192986 H        1 UNL1     0.0428
     85 H         7.817679   1.364061   -4.60793 H        1 UNL1     0.0428
     86 H         6.525159   1.438476   -2.475161 H        1 UNL1     0.0317
     87 H         5.029424   1.209336   -3.257864 H        1 UNL1     0.0317
     88 H         7.265153   0.874568   -7.37977 H        1 UNL1     0.0429
     89 H         6.902433   -0.611957   -6.499477 H        1 UNL1     0.0429
     90 H         4.360976   0.200997   -7.304768 H        1 UNL1     0.0308
     91 H         6.302525   1.021185   -9.543627 H        1 UNL1     0.0233
     92 H         4.534545   0.870845   -9.708364 H        1 UNL1     0.0233
     93 H         5.222647   2.111723   -8.683015 H        1 UNL1     0.0233
     94 H         4.649546   -1.491473   -9.151663 H        1 UNL1     0.0233
     95 H         6.347595   -1.614352   -8.66601 H        1 UNL1     0.0233
     96 H         5.06136   -2.051724   -7.517839 H        1 UNL1     0.0233
     97 H         4.131578   10.523775   -0.112671 H        1 UNL1     0.0280
     98 H         5.741227   11.140451   -0.369441 H        1 UNL1     0.0280
     99 H         4.566054   11.139302   -1.718033 H        1 UNL1     0.0280
     100 H         6.682343   10.721287   -3.026524 H        1 UNL1     0.2922
     101 H         4.700182   0.891504   2.433629 H        1 UNL1     0.0236
     102 H         6.013134   2.131269   2.505737 H        1 UNL1     0.0236
     103 H         6.319445   0.522599   1.927939 H        1 UNL1     0.0236
     104 H         4.331985   -0.554744   1.275843 H        1 UNL1     0.2098
     105 H         0.708562   1.281064   -0.931451 H        1 UNL1     0.0234
     106 H         1.291471   -0.405602   -1.011875 H        1 UNL1     0.0234
     107 H         0.0   -0.0   0.0 H        1 UNL1     0.0234
     108 H         1.197166   3.263551   1.7468 H        1 UNL1     0.2098
     109 H         1.078013   3.047548   -0.85462 H        1 UNL1     0.0234
     110 H         -0.178875   2.331782   -1.913258 H        1 UNL1     0.0234
     111 H         0.073873   4.041863   -1.889026 H        1 UNL1     0.0234
     112 H         -3.598933   -1.511901   1.452175 H        1 UNL1     0.0342
     113 H         -3.224303   0.117142   2.118589 H        1 UNL1     0.0342
     114 H         -4.421949   -0.068786   0.834438 H        1 UNL1     0.0342
     115 H         -2.656283   1.954068   3.307831 H        1 UNL1     0.0234
     116 H         -1.150202   1.924664   4.230675 H        1 UNL1     0.0234
     117 H         -1.625956   3.304611   3.219215 H        1 UNL1     0.0234
     118 H         0.939035   7.683002   -0.782695 H        1 UNL1     0.0309
     119 H         2.209447   7.782966   -2.041313 H        1 UNL1     0.0309
     120 H         1.452289   6.263225   -1.617928 H        1 UNL1     0.0309
     121 H         -0.303994   6.278938   2.804944 H        1 UNL1     0.0524
     122 H         -2.044724   6.063595   2.58057 H        1 UNL1     0.0524
     123 H         -1.242547   5.339223   3.996741 H        1 UNL1     0.0524
@<TRIPOS>BOND
     1     1     2    1
     2     1    42    1
     3     2     3    2
     4     3     4    1
     5     4     5    2
     6     5     7    1
     7     6    75    1
     8     6    76    1
     9     6    77    1
    10     7     9   am
    11     9    10    1
    12    10    11    2
    13    10    43    1
    14    11    14    1
    15    11    15    1
    16    12    13   ar
    17    12    27   ar
    18    12    43    1
    19    13    14    1
    20    13    30   ar
    21    14    17    2
    22    15    16    1
    23    16    17    1
    24    16    18    1
    25    16    22    1
    26    18    19    1
    27    19    20    1
    28    20    21    1
    29    21    22    1
    30    23    24    1
    31    23    88    1
    32    23    89    1
    33    24    25    1
    34    24    26    1
    35    24    90    1
    36    25    91    1
    37    25    92    1
    38    25    93    1
    39    26    94    1
    40    26    95    1
    41    26    96    1
    42    27    28   ar
    43    28    29   ar
    44    29    30   ar
    45    29    31    1
    46    30    33    1
    47    31    32    1
    48    32    33    1
    49    32    35    1
    50    34    97    1
    51    34    98    1
    52    34    99    1
    53    35    61    1
    54    36    37    1
    55    36    60    1
    56    37    38    1
    57    38    39    1
    58    39    40    1
    59    40    41    1
    60    41    42    1
    61    45   100    1
    62    47   101    1
    63    47   102    1
    64    47   103    1
    65    48   104    1
    66    49   105    1
    67    49   106    1
    68    49   107    1
    69    50   108    1
    70    51    59    1
    71    52   109    1
    72    52   110    1
    73    52   111    1
    74    53    54    1
    75    54    55    2
    76    54    56    1
    77    56   112    1
    78    56   113    1
    79    56   114    1
    80    57   115    1
    81    57   116    1
    82    57   117    1
    83    58   118    1
    84    58   119    1
    85    58   120    1
    86    59   121    1
    87    59   122    1
    88    59   123    1
    89    60    61    2
    90     1    47    1
    91     1    62    1
    92     2    63    1
    93     3    64    1
    94     4    65    1
    95     5     6    1
    96     7     8    2
    97     9    78    1
    98    15    79    1
    99    18    80    1
   100    18    81    1
   101    19    82    1
   102    19    83    1
   103    20    23    1
   104    21    84    1
   105    21    85    1
   106    22    86    1
   107    22    87    1
   108    27    45    1
   109    28    34    1
   110    32    58    1
   111    33    46    2
   112    36    51    1
   113    36    66    1
   114    37    52    1
   115    37    67    1
   116    38    53    1
   117    38    68    1
   118    42    48    1
   119    42    72    1
   120    43    44    2
   121    60    73    1
   122    61    74    1
   123    39    69    1
   124    39    57    1
   125    40    70    1
   126    40    50    1
   127    41    71    1
   128    41    49    1
