@<TRIPOS>MOLECULE
*****
 123 128 0 0 0
SMALL
GASTEIGER

@<TRIPOS>ATOM
     1 C         4.307875   -2.407408   -0.657249 C.3        1 UNL1     0.0009
     2 C         5.122198   -3.31517   -2.053631 C.2        1 UNL1     -0.0787
     3 C         5.643217   -4.541328   -2.620308 C.2        1 UNL1     -0.0649
     4 C         6.237344   -4.794223   -4.185369 C.2        1 UNL1     -0.0542
     5 C         6.527601   -5.766516   -5.174042 C.2        1 UNL1     0.0115
     6 C         6.648243   -7.292567   -5.438494 C.3        1 UNL1     -0.0348
     7 C         6.711331   -5.294619   -6.697376 C.2        1 UNL1     0.2441
     8 O         7.806403   -5.174008   -7.229162 O.2        1 UNL1     -0.2702
     9 N         5.528283   -5.281173   -7.456565 N.am        1 UNL1     -0.2772
     10 C         4.889828   -4.068938   -7.329353 C.2        1 UNL1     0.1049
     11 C         4.128111   -3.921618   -6.260565 C.2        1 UNL1     0.0801
     12 C         5.279848   -1.600502   -7.439089 C.ar        1 UNL1     0.0753
     13 C         4.624604   -1.519644   -6.169158 C.ar        1 UNL1     0.0305
     14 C         3.91157   -2.66197   -5.60195 C.2        1 UNL1     0.0924
     15 N         3.700404   -4.834962   -5.372086 N.pl3        1 UNL1     -0.3170
     16 C         2.757222   -4.189564   -4.497945 C.3        1 UNL1     0.1275
     17 N         3.173054   -2.738769   -4.498491 N.2        1 UNL1     -0.2557
     18 C         1.395973   -4.240187   -5.185069 C.3        1 UNL1     0.0016
     19 C         1.065969   -5.68958   -5.504361 C.3        1 UNL1     0.0026
     20 N         1.054964   -6.451206   -4.263058 N.3        1 UNL1     -0.3018
     21 C         2.30331   -6.412094   -3.49855 C.3        1 UNL1     0.0026
     22 C         2.61321   -4.947383   -3.184735 C.3        1 UNL1     0.0016
     23 C         0.463602   -7.765877   -4.413298 C.3        1 UNL1     0.0012
     24 C         1.088795   -8.504459   -5.607195 C.3        1 UNL1     -0.0339
     25 C         2.064895   -9.598138   -5.14335 C.3        1 UNL1     -0.0615
     26 C         -0.002631   -9.070792   -6.498731 C.3        1 UNL1     -0.0615
     27 C         5.853164   -0.476122   -8.028322 C.ar        1 UNL1     0.1347
     28 C         5.799994   0.785924   -7.463997 C.ar        1 UNL1     0.0342
     29 C         5.192839   0.832222   -6.191054 C.ar        1 UNL1     0.1435
     30 C         4.646153   -0.292619   -5.572114 C.ar        1 UNL1     0.0774
     31 O         4.966164   2.005322   -5.56061 O.3        1 UNL1     -0.4436
     32 C         3.955212   1.704288   -4.58684 C.3        1 UNL1     0.3143
     33 C         4.071526   0.213237   -4.343017 C.2        1 UNL1     0.2504
     34 C         6.167016   2.073597   -8.147586 C.3        1 UNL1     -0.0327
     35 O         4.330394   2.356915   -3.367591 O.2        1 UNL1     -0.4528
     36 C         1.081929   3.171113   -1.580792 C.3        1 UNL1     0.0854
     37 C         -0.078267   2.201651   -1.131779 C.3        1 UNL1     0.0236
     38 C         -0.456819   2.27609   0.424788 C.3        1 UNL1     0.1131
     39 C         0.682385   2.16106   1.516233 C.3        1 UNL1     0.0200
     40 C         1.888057   1.018704   1.361909 C.3        1 UNL1     0.0661
     41 C         1.658281   -0.632065   1.046038 C.3        1 UNL1     0.0091
     42 C         2.70123   -1.822638   0.11857 C.3        1 UNL1     0.0661
     43 C         5.250568   -2.903016   -8.149625 C.2        1 UNL1     0.2131
     44 O         5.406215   -3.017511   -9.351873 O.2        1 UNL1     -0.2851
     45 O         6.511585   -0.649762   -9.243958 O.3        1 UNL1     -0.5056
     46 O         3.777032   -0.413085   -3.349615 O.2        1 UNL1     -0.2836
     47 C         5.317185   -2.181486   0.500436 C.3        1 UNL1     -0.0566
     48 O         2.63114   -2.872772   1.163281 O.3        1 UNL1     -0.3909
     49 C         0.231842   -0.848125   0.592076 C.3        1 UNL1     -0.0577
     50 O         2.953178   1.517008   0.577731 O.3        1 UNL1     -0.3910
     51 O         1.755348   3.847859   -0.54351 O.3        1 UNL1     -0.3753
     52 C         -0.041445   0.848519   -1.914484 C.3        1 UNL1     -0.0564
     53 O         -1.767514   1.624364   0.755933 O.3        1 UNL1     -0.4608
     54 C         -2.027559   0.888809   1.88255 C.2        1 UNL1     0.3042
     55 O         -3.060548   0.886326   2.550956 O.2        1 UNL1     -0.2512
     56 C         -0.911209   -0.040932   2.264722 C.3        1 UNL1     0.0332
     57 C         1.111309   3.646934   1.924126 C.3        1 UNL1     -0.0567
     58 C         2.595481   1.994494   -5.263924 C.3        1 UNL1     0.0210
     59 C         3.133335   3.506361   -0.400691 C.3        1 UNL1     0.0372
     60 C         2.127919   2.546427   -2.43568 C.2        1 UNL1     -0.0208
     61 C         3.457315   2.638732   -2.381538 C.2        1 UNL1     0.0882
     62 H         4.321874   -1.495948   -1.266967 H        1 UNL1     0.0365
     63 H         5.324063   -2.491537   -2.741635 H        1 UNL1     0.0576
     64 H         5.541864   -5.498728   -2.104342 H        1 UNL1     0.0615
     65 H         6.375165   -3.783246   -4.578325 H        1 UNL1     0.0622
     66 H         0.585665   3.921752   -2.211909 H        1 UNL1     0.0645
     67 H         -0.981971   2.630982   -1.598204 H        1 UNL1     0.0362
     68 H         -0.808659   3.317627   0.478923 H        1 UNL1     0.0741
     69 H         0.230806   1.902548   2.464735 H        1 UNL1     0.0359
     70 H         2.282916   1.017326   2.395903 H        1 UNL1     0.0600
     71 H         1.618094   -1.023241   2.081568 H        1 UNL1     0.0348
     72 H         3.360023   -0.981767   0.379803 H        1 UNL1     0.0602
     73 H         1.6629   2.057424   -3.255364 H        1 UNL1     0.0628
     74 H         4.011965   3.071679   -1.548377 H        1 UNL1     0.1022
     75 H         7.416974   -7.747047   -4.768021 H        1 UNL1     0.0279
     76 H         5.766811   -7.893081   -5.225116 H        1 UNL1     0.0279
     77 H         7.06401   -7.520639   -6.430876 H        1 UNL1     0.0279
     78 H         4.893558   -5.999175   -7.113527 H        1 UNL1     0.1553
     79 H         3.689187   -5.822454   -5.550042 H        1 UNL1     0.1484
     80 H         0.644161   -3.794869   -4.522319 H        1 UNL1     0.0317
     81 H         1.398402   -3.642267   -6.10275 H        1 UNL1     0.0317
     82 H         1.776075   -6.11933   -6.226148 H        1 UNL1     0.0428
     83 H         0.09242   -5.702498   -5.995366 H        1 UNL1     0.0428
     84 H         2.243002   -6.925082   -2.533658 H        1 UNL1     0.0428
     85 H         3.120363   -6.92616   -4.02341 H        1 UNL1     0.0428
     86 H         3.453833   -4.966095   -2.516163 H        1 UNL1     0.0317
     87 H         1.811247   -4.517623   -2.572152 H        1 UNL1     0.0317
     88 H         0.67011   -8.339622   -3.500354 H        1 UNL1     0.0429
     89 H         -0.627608   -7.70316   -4.513803 H        1 UNL1     0.0429
     90 H         1.638421   -7.785642   -6.226409 H        1 UNL1     0.0308
     91 H         2.193762   -10.367602   -5.910435 H        1 UNL1     0.0233
     92 H         3.039191   -9.168197   -4.89941 H        1 UNL1     0.0233
     93 H         1.719898   -10.108274   -4.235841 H        1 UNL1     0.0233
     94 H         -0.716747   -8.284803   -6.767236 H        1 UNL1     0.0233
     95 H         0.434073   -9.459547   -7.422918 H        1 UNL1     0.0233
     96 H         -0.547517   -9.876875   -5.999433 H        1 UNL1     0.0233
     97 H         7.11179   1.998598   -8.677688 H        1 UNL1     0.0280
     98 H         5.423467   2.369754   -8.899039 H        1 UNL1     0.0280
     99 H         6.254043   2.877416   -7.398322 H        1 UNL1     0.0280
     100 H         5.964494   -0.550529   -10.003212 H        1 UNL1     0.2922
     101 H         5.993005   -3.033548   0.570536 H        1 UNL1     0.0236
     102 H         4.835246   -1.962305   1.452632 H        1 UNL1     0.0236
     103 H         5.975516   -1.316797   0.313071 H        1 UNL1     0.0236
     104 H         3.546275   -3.075103   1.439976 H        1 UNL1     0.2098
     105 H         0.085192   -1.732927   -0.022278 H        1 UNL1     0.0234
     106 H         -0.50992   -0.81504   1.389962 H        1 UNL1     0.0234
     107 H         -0.0   0.0   0.0 H        1 UNL1     0.0234
     108 H         2.559756   1.951429   -0.203464 H        1 UNL1     0.2098
     109 H         0.196058   -0.003195   -1.261882 H        1 UNL1     0.0234
     110 H         -0.967183   0.643092   -2.46271 H        1 UNL1     0.0234
     111 H         0.73352   0.851978   -2.692535 H        1 UNL1     0.0234
     112 H         -0.134806   0.51122   2.802933 H        1 UNL1     0.0342
     113 H         -1.265821   -0.887628   2.850555 H        1 UNL1     0.0342
     114 H         -0.464454   -0.437847   1.34275 H        1 UNL1     0.0342
     115 H         1.555195   3.682683   2.928554 H        1 UNL1     0.0234
     116 H         1.820814   4.109183   1.234939 H        1 UNL1     0.0234
     117 H         0.256292   4.334261   2.04442 H        1 UNL1     0.0234
     118 H         2.714651   2.540261   -6.21626 H        1 UNL1     0.0309
     119 H         2.002017   1.091779   -5.4403 H        1 UNL1     0.0309
     120 H         1.963021   2.661546   -4.667986 H        1 UNL1     0.0309
     121 H         3.185294   2.57192   0.15741 H        1 UNL1     0.0524
     122 H         3.626113   3.340099   -1.373092 H        1 UNL1     0.0524
     123 H         3.661779   4.29142   0.132716 H        1 UNL1     0.0524
@<TRIPOS>BOND
     1     1     2    1
     2     1    42    1
     3     2     3    2
     4     3     4    1
     5     4     5    2
     6     5     7    1
     7     6    75    1
     8     6    76    1
     9     6    77    1
    10     7     9   am
    11     9    10    1
    12    10    11    2
    13    10    43    1
    14    11    14    1
    15    11    15    1
    16    12    13   ar
    17    12    27   ar
    18    12    43    1
    19    13    14    1
    20    13    30   ar
    21    14    17    2
    22    15    16    1
    23    16    17    1
    24    16    18    1
    25    16    22    1
    26    18    19    1
    27    19    20    1
    28    20    21    1
    29    21    22    1
    30    23    24    1
    31    23    88    1
    32    23    89    1
    33    24    25    1
    34    24    26    1
    35    24    90    1
    36    25    91    1
    37    25    92    1
    38    25    93    1
    39    26    94    1
    40    26    95    1
    41    26    96    1
    42    27    28   ar
    43    28    29   ar
    44    29    30   ar
    45    29    31    1
    46    30    33    1
    47    31    32    1
    48    32    33    1
    49    32    35    1
    50    34    97    1
    51    34    98    1
    52    34    99    1
    53    35    61    1
    54    36    37    1
    55    36    60    1
    56    37    38    1
    57    38    39    1
    58    39    40    1
    59    40    41    1
    60    41    42    1
    61    45   100    1
    62    47   101    1
    63    47   102    1
    64    47   103    1
    65    48   104    1
    66    49   105    1
    67    49   106    1
    68    49   107    1
    69    50   108    1
    70    51    59    1
    71    52   109    1
    72    52   110    1
    73    52   111    1
    74    53    54    1
    75    54    55    2
    76    54    56    1
    77    56   112    1
    78    56   113    1
    79    56   114    1
    80    57   115    1
    81    57   116    1
    82    57   117    1
    83    58   118    1
    84    58   119    1
    85    58   120    1
    86    59   121    1
    87    59   122    1
    88    59   123    1
    89    60    61    2
    90     1    47    1
    91     1    62    1
    92     2    63    1
    93     3    64    1
    94     4    65    1
    95     5     6    1
    96     7     8    2
    97     9    78    1
    98    15    79    1
    99    18    80    1
   100    18    81    1
   101    19    82    1
   102    19    83    1
   103    20    23    1
   104    21    84    1
   105    21    85    1
   106    22    86    1
   107    22    87    1
   108    27    45    1
   109    28    34    1
   110    32    58    1
   111    33    46    2
   112    36    51    1
   113    36    66    1
   114    37    52    1
   115    37    67    1
   116    38    53    1
   117    38    68    1
   118    42    48    1
   119    42    72    1
   120    43    44    2
   121    60    73    1
   122    61    74    1
   123    39    69    1
   124    39    57    1
   125    40    70    1
   126    40    50    1
   127    41    71    1
   128    41    49    1
