@<TRIPOS>MOLECULE
*****
 123 128 0 0 0
SMALL
GASTEIGER

@<TRIPOS>ATOM
     1 C         5.164082   1.758714   0.488315 C.3        1 UNL1     0.0009
     2 C         6.601343   2.56053   -0.365155 C.2        1 UNL1     -0.0787
     3 C         7.884572   2.459199   -1.027802 C.2        1 UNL1     -0.0649
     4 C         8.761887   3.689996   -1.790569 C.2        1 UNL1     -0.0542
     5 C         9.783286   3.977211   -2.729361 C.2        1 UNL1     0.0115
     6 C         10.913857   3.347017   -3.588422 C.3        1 UNL1     -0.0348
     7 C         9.877911   5.45622   -3.346263 C.2        1 UNL1     0.2441
     8 O         10.700077   6.281571   -2.972948 O.2        1 UNL1     -0.2702
     9 N         9.129602   5.653889   -4.519767 N.am        1 UNL1     -0.2772
     10 C         7.845831   6.041194   -4.211143 C.2        1 UNL1     0.1049
     11 C         7.000709   5.070833   -3.91384 C.2        1 UNL1     0.0801
     12 C         6.542843   7.656248   -2.814305 C.ar        1 UNL1     0.0753
     13 C         5.784355   6.530606   -2.360173 C.ar        1 UNL1     0.0305
     14 C         5.904096   5.22048   -2.996005 C.2        1 UNL1     0.0924
     15 N         7.125268   3.740907   -4.063212 N.pl3        1 UNL1     -0.3170
     16 C         5.855571   3.142407   -3.747105 C.3        1 UNL1     0.1275
     17 N         5.216178   4.103815   -2.775202 N.2        1 UNL1     -0.2557
     18 C         5.004991   3.191391   -5.012733 C.3        1 UNL1     0.0016
     19 C         5.762805   2.500206   -6.135039 C.3        1 UNL1     0.0026
     20 N         6.033937   1.125232   -5.738855 N.3        1 UNL1     -0.3018
     21 C         6.795197   0.974642   -4.497011 C.3        1 UNL1     0.0026
     22 C         6.013525   1.672171   -3.38241 C.3        1 UNL1     0.0016
     23 C         6.48151   0.298352   -6.841846 C.3        1 UNL1     0.0012
     24 C         5.328194   0.040428   -7.824238 C.3        1 UNL1     -0.0339
     25 C         5.354663   1.035298   -8.996241 C.3        1 UNL1     -0.0615
     26 C         5.370283   -1.397738   -8.310743 C.3        1 UNL1     -0.0615
     27 C         6.335617   8.927504   -2.284132 C.ar        1 UNL1     0.1347
     28 C         5.374451   9.202699   -1.327848 C.ar        1 UNL1     0.0342
     29 C         4.673443   8.070688   -0.860618 C.ar        1 UNL1     0.1435
     30 C         4.895407   6.785361   -1.356487 C.ar        1 UNL1     0.0774
     31 O         3.630736   8.189044   -0.009877 O.3        1 UNL1     -0.4436
     32 C         2.910848   6.954339   -0.144555 C.3        1 UNL1     0.3143
     33 C         3.926355   5.958727   -0.667734 C.2        1 UNL1     0.2504
     34 C         4.92511   10.571355   -0.897763 C.3        1 UNL1     -0.0327
     35 O         2.548323   6.526599   1.174105 O.2        1 UNL1     -0.4528
     36 C         -0.691593   4.587576   0.785232 C.3        1 UNL1     0.0854
     37 C         -0.993684   3.320233   -0.103648 C.3        1 UNL1     0.0236
     38 C         -1.594131   2.0641   0.692177 C.3        1 UNL1     0.1131
     39 C         -0.870117   1.543385   1.998672 C.3        1 UNL1     0.0200
     40 C         0.791175   1.400214   2.043926 C.3        1 UNL1     0.0661
     41 C         1.753647   0.624252   0.882401 C.3        1 UNL1     0.0091
     42 C         3.461821   0.984904   0.318951 C.3        1 UNL1     0.0661
     43 C         7.495205   7.441728   -3.932002 C.2        1 UNL1     0.2131
     44 O         7.8953   8.335147   -4.6562 O.2        1 UNL1     -0.2851
     45 O         7.147446   9.960323   -2.748521 O.3        1 UNL1     -0.5056
     46 O         3.943591   4.756178   -0.528326 O.2        1 UNL1     -0.2836
     47 C         5.558326   1.340024   1.930276 C.3        1 UNL1     -0.0566
     48 O         3.911977   -0.425019   0.411648 O.3        1 UNL1     -0.3909
     49 C         0.922032   0.381761   -0.357401 C.3        1 UNL1     -0.0577
     50 O         1.389144   2.621603   2.42911 O.3        1 UNL1     -0.3910
     51 O         -0.818007   4.4077   2.177746 O.3        1 UNL1     -0.3753
     52 C         0.053088   3.15283   -1.25308 C.3        1 UNL1     -0.0564
     53 O         -2.193793   1.017957   -0.201308 O.3        1 UNL1     -0.4608
     54 C         -2.414707   -0.289982   0.142819 C.2        1 UNL1     0.3042
     55 O         -1.840251   -1.285218   -0.296889 O.2        1 UNL1     -0.2512
     56 C         -3.445708   -0.462067   1.22177 C.3        1 UNL1     0.0332
     57 C         -1.594289   2.220481   3.253778 C.3        1 UNL1     -0.0567
     58 C         1.837347   7.190327   -1.232413 C.3        1 UNL1     0.0210
     59 C         -1.164927   5.585146   2.905161 C.3        1 UNL1     0.0372
     60 C         0.637047   5.216652   0.552552 C.2        1 UNL1     -0.0208
     61 C         1.547845   5.659231   1.420489 C.2        1 UNL1     0.0882
     62 H         4.686788   2.742891   0.567667 H        1 UNL1     0.0365
     63 H         6.333602   3.614723   -0.267882 H        1 UNL1     0.0576
     64 H         8.343824   1.491364   -1.241087 H        1 UNL1     0.0615
     65 H         8.27304   4.607242   -1.451202 H        1 UNL1     0.0622
     66 H         -1.436593   5.330936   0.468313 H        1 UNL1     0.0645
     67 H         -1.858489   3.624137   -0.71872 H        1 UNL1     0.0362
     68 H         -2.542383   2.502302   1.039048 H        1 UNL1     0.0741
     69 H         -1.20075   0.533299   2.200701 H        1 UNL1     0.0359
     70 H         0.902148   0.746347   2.930043 H        1 UNL1     0.0600
     71 H         1.797705   -0.393776   1.316721 H        1 UNL1     0.0348
     72 H         3.35354   1.479976   1.294909 H        1 UNL1     0.0602
     73 H         0.7566   5.406623   -0.48517 H        1 UNL1     0.0628
     74 H         1.528597   5.456209   2.491772 H        1 UNL1     0.1022
     75 H         10.95942   2.242918   -3.427413 H        1 UNL1     0.0279
     76 H         10.8021   3.421942   -4.667758 H        1 UNL1     0.0279
     77 H         11.917955   3.655304   -3.262159 H        1 UNL1     0.0279
     78 H         9.069636   4.780128   -5.038443 H        1 UNL1     0.1553
     79 H         7.792195   3.309336   -4.676308 H        1 UNL1     0.1484
     80 H         4.043961   2.700663   -4.816841 H        1 UNL1     0.0317
     81 H         4.777602   4.225894   -5.291568 H        1 UNL1     0.0317
     82 H         6.693265   3.030877   -6.385127 H        1 UNL1     0.0428
     83 H         5.13922   2.548184   -7.028286 H        1 UNL1     0.0428
     84 H         6.916236   -0.065919   -4.180161 H        1 UNL1     0.0428
     85 H         7.825024   1.343204   -4.601585 H        1 UNL1     0.0428
     86 H         6.528592   1.42896   -2.471618 H        1 UNL1     0.0317
     87 H         5.034442   1.194223   -3.255688 H        1 UNL1     0.0317
     88 H         7.27787   0.837349   -7.371552 H        1 UNL1     0.0429
     89 H         6.914627   -0.644344   -6.483365 H        1 UNL1     0.0429
     90 H         4.374229   0.149756   -7.294888 H        1 UNL1     0.0308
     91 H         6.305809   0.98988   -9.535091 H        1 UNL1     0.0233
     92 H         4.53775   0.833253   -9.692976 H        1 UNL1     0.0233
     93 H         5.225331   2.073129   -8.666067 H        1 UNL1     0.0233
     94 H         4.675695   -1.534165   -9.146669 H        1 UNL1     0.0233
     95 H         6.375607   -1.643313   -8.664265 H        1 UNL1     0.0233
     96 H         5.095332   -2.096234   -7.515462 H        1 UNL1     0.0233
     97 H         4.130479   10.525889   -0.159031 H        1 UNL1     0.0280
     98 H         5.736298   11.145754   -0.431614 H        1 UNL1     0.0280
     99 H         4.552329   11.129175   -1.772387 H        1 UNL1     0.0280
     100 H         6.680082   10.70802   -3.07737 H        1 UNL1     0.2922
     101 H         4.695126   0.90894   2.436938 H        1 UNL1     0.0236
     102 H         6.007052   2.150059   2.504273 H        1 UNL1     0.0236
     103 H         6.315567   0.538311   1.936307 H        1 UNL1     0.0236
     104 H         4.330066   -0.544222   1.28684 H        1 UNL1     0.2098
     105 H         0.709325   1.276195   -0.937536 H        1 UNL1     0.0234
     106 H         1.293593   -0.410481   -1.007187 H        1 UNL1     0.0234
     107 H         0.0   -0.0   0.0 H        1 UNL1     0.0234
     108 H         1.191052   3.274618   1.73047 H        1 UNL1     0.2098
     109 H         1.077365   3.043361   -0.870216 H        1 UNL1     0.0234
     110 H         -0.177089   2.320591   -1.926981 H        1 UNL1     0.0234
     111 H         0.074384   4.030967   -1.912146 H        1 UNL1     0.0234
     112 H         -3.567579   -1.524397   1.454039 H        1 UNL1     0.0342
     113 H         -3.200973   0.107977   2.116755 H        1 UNL1     0.0342
     114 H         -4.406225   -0.088179   0.841271 H        1 UNL1     0.0342
     115 H         -2.663673   1.971149   3.291714 H        1 UNL1     0.0234
     116 H         -1.159245   1.948162   4.217431 H        1 UNL1     0.0234
     117 H         -1.63416   3.321912   3.197179 H        1 UNL1     0.0234
     118 H         0.934919   7.67905   -0.825251 H        1 UNL1     0.0309
     119 H         2.207536   7.77269   -2.082128 H        1 UNL1     0.0309
     120 H         1.450706   6.25486   -1.651362 H        1 UNL1     0.0309
     121 H         -0.361342   6.307714   2.765504 H        1 UNL1     0.0524
     122 H         -2.094992   6.047198   2.534318 H        1 UNL1     0.0524
     123 H         -1.282244   5.354266   3.960161 H        1 UNL1     0.0524
@<TRIPOS>BOND
     1     1     2    1
     2     1    42    1
     3     2     3    2
     4     3     4    1
     5     4     5    2
     6     5     7    1
     7     6    75    1
     8     6    76    1
     9     6    77    1
    10     7     9   am
    11     9    10    1
    12    10    11    2
    13    10    43    1
    14    11    14    1
    15    11    15    1
    16    12    13   ar
    17    12    27   ar
    18    12    43    1
    19    13    14    1
    20    13    30   ar
    21    14    17    2
    22    15    16    1
    23    16    17    1
    24    16    18    1
    25    16    22    1
    26    18    19    1
    27    19    20    1
    28    20    21    1
    29    21    22    1
    30    23    24    1
    31    23    88    1
    32    23    89    1
    33    24    25    1
    34    24    26    1
    35    24    90    1
    36    25    91    1
    37    25    92    1
    38    25    93    1
    39    26    94    1
    40    26    95    1
    41    26    96    1
    42    27    28   ar
    43    28    29   ar
    44    29    30   ar
    45    29    31    1
    46    30    33    1
    47    31    32    1
    48    32    33    1
    49    32    35    1
    50    34    97    1
    51    34    98    1
    52    34    99    1
    53    35    61    1
    54    36    37    1
    55    36    60    1
    56    37    38    1
    57    38    39    1
    58    39    40    1
    59    40    41    1
    60    41    42    1
    61    45   100    1
    62    47   101    1
    63    47   102    1
    64    47   103    1
    65    48   104    1
    66    49   105    1
    67    49   106    1
    68    49   107    1
    69    50   108    1
    70    51    59    1
    71    52   109    1
    72    52   110    1
    73    52   111    1
    74    53    54    1
    75    54    55    2
    76    54    56    1
    77    56   112    1
    78    56   113    1
    79    56   114    1
    80    57   115    1
    81    57   116    1
    82    57   117    1
    83    58   118    1
    84    58   119    1
    85    58   120    1
    86    59   121    1
    87    59   122    1
    88    59   123    1
    89    60    61    2
    90     1    47    1
    91     1    62    1
    92     2    63    1
    93     3    64    1
    94     4    65    1
    95     5     6    1
    96     7     8    2
    97     9    78    1
    98    15    79    1
    99    18    80    1
   100    18    81    1
   101    19    82    1
   102    19    83    1
   103    20    23    1
   104    21    84    1
   105    21    85    1
   106    22    86    1
   107    22    87    1
   108    27    45    1
   109    28    34    1
   110    32    58    1
   111    33    46    2
   112    36    51    1
   113    36    66    1
   114    37    52    1
   115    37    67    1
   116    38    53    1
   117    38    68    1
   118    42    48    1
   119    42    72    1
   120    43    44    2
   121    60    73    1
   122    61    74    1
   123    39    69    1
   124    39    57    1
   125    40    70    1
   126    40    50    1
   127    41    71    1
   128    41    49    1
