@<TRIPOS>MOLECULE
*****
 123 128 0 0 0
SMALL
GASTEIGER

@<TRIPOS>ATOM
     1 C         -3.242578   0.543469   4.217233 C.3        1 UNL1     0.0009
     2 C         -3.776791   -0.178427   5.839121 C.2        1 UNL1     -0.0787
     3 C         -4.641325   -1.056273   6.599392 C.2        1 UNL1     -0.0649
     4 C         -4.560866   -1.421645   8.25057 C.2        1 UNL1     -0.0542
     5 C         -4.941704   -2.345017   9.255271 C.2        1 UNL1     0.0115
     6 C         -5.836377   -3.579497   9.553501 C.3        1 UNL1     -0.0348
     7 C         -4.160153   -2.33363   10.657426 C.2        1 UNL1     0.2441
     8 O         -4.620126   -1.82712   11.671526 O.2        1 UNL1     -0.2702
     9 N         -3.031223   -3.16968   10.709264 N.am        1 UNL1     -0.2772
     10 C         -1.914948   -2.497159   10.267713 C.2        1 UNL1     0.1049
     11 C         -1.741346   -2.453575   8.959208 C.2        1 UNL1     0.0801
     12 C         -0.648856   -0.357752   10.545708 C.ar        1 UNL1     0.0753
     13 C         -0.670508   -0.250794   9.118578 C.ar        1 UNL1     0.0305
     14 C         -1.102781   -1.36238   8.274441 C.2        1 UNL1     0.0924
     15 N         -2.362366   -3.136464   7.98221 N.pl3        1 UNL1     -0.3170
     16 C         -1.684544   -2.849087   6.745996 C.3        1 UNL1     0.1275
     17 N         -1.094386   -1.474995   6.949234 N.2        1 UNL1     -0.2557
     18 C         -0.501642   -3.807394   6.645538 C.3        1 UNL1     0.0016
     19 C         -1.018971   -5.23237   6.761316 C.3        1 UNL1     0.0026
     20 N         -1.97822   -5.470123   5.691576 N.3        1 UNL1     -0.3018
     21 C         -3.122364   -4.556477   5.668054 C.3        1 UNL1     0.0026
     22 C         -2.579788   -3.131425   5.546674 C.3        1 UNL1     0.0016
     23 C         -2.304406   -6.872803   5.528064 C.3        1 UNL1     0.0012
     24 C         -1.077049   -7.657744   5.038963 C.3        1 UNL1     -0.0339
     25 C         -1.395951   -9.152384   4.870408 C.3        1 UNL1     -0.0615
     26 C         -0.549585   -7.049978   3.750871 C.3        1 UNL1     -0.0615
     27 C         -0.122688   0.659977   11.337853 C.ar        1 UNL1     0.1347
     28 C         0.443965   1.809772   10.817346 C.ar        1 UNL1     0.0342
     29 C         0.367301   1.915153   9.41229 C.ar        1 UNL1     0.1435
     30 C         -0.189534   0.919935   8.608116 C.ar        1 UNL1     0.0774
     31 O         0.97214   2.923497   8.747145 O.3        1 UNL1     -0.4436
     32 C         1.08498   2.45066   7.39638 C.3        1 UNL1     0.3143
     33 C         0.006549   1.395626   7.254589 C.2        1 UNL1     0.2504
     34 C         1.248487   2.821615   11.584821 C.3        1 UNL1     -0.0327
     35 O         0.722957   3.535876   6.533538 O.2        1 UNL1     -0.4528
     36 C         2.708532   3.031608   3.338027 C.3        1 UNL1     0.0854
     37 C         2.735129   1.788923   2.367178 C.3        1 UNL1     0.0236
     38 C         2.402869   2.121806   0.834032 C.3        1 UNL1     0.1131
     39 C         1.106866   2.954477   0.474442 C.3        1 UNL1     0.0200
     40 C         -0.344738   2.625359   1.227413 C.3        1 UNL1     0.0661
     41 C         -1.053547   1.093051   1.392436 C.3        1 UNL1     0.0091
     42 C         -2.10663   0.406669   2.728587 C.3        1 UNL1     0.0661
     43 C         -1.123647   -1.627072   11.150405 C.2        1 UNL1     0.2131
     44 O         -0.807722   -2.000975   12.26536 O.2        1 UNL1     -0.2851
     45 O         -0.181358   0.497089   12.720409 O.3        1 UNL1     -0.5056
     46 O         -0.57556   1.042937   6.253283 O.2        1 UNL1     -0.2836
     47 C         -4.271103   1.60042   3.732494 C.3        1 UNL1     -0.0566
     48 O         -3.118983   -0.151539   1.799791 O.3        1 UNL1     -0.3909
     49 C         -0.021079   0.03931   1.05907 C.3        1 UNL1     -0.0577
     50 O         -0.453257   3.341183   2.441309 O.3        1 UNL1     -0.3910
     51 O         2.231161   4.236571   2.783398 O.3        1 UNL1     -0.3753
     52 C         2.214045   0.491865   3.067936 C.3        1 UNL1     -0.0564
     53 O         2.77234   1.01843   -0.113796 O.3        1 UNL1     -0.4608
     54 C         2.491585   -0.310875   0.065245 C.2        1 UNL1     0.3042
     55 O         2.238132   -0.884729   1.123683 O.2        1 UNL1     -0.2512
     56 C         2.448216   -1.094236   -1.21584 C.3        1 UNL1     0.0332
     57 C         1.542204   4.486959   0.332474 C.3        1 UNL1     -0.0567
     58 C         2.468245   1.768076   7.285999 C.3        1 UNL1     0.0210
     59 C         1.255922   4.915158   3.573521 C.3        1 UNL1     0.0372
     60 C         1.964902   2.820205   4.609831 C.2        1 UNL1     -0.0208
     61 C         1.08777   3.603634   5.238816 C.2        1 UNL1     0.0882
     62 H         -2.45328   1.093406   4.743817 H        1 UNL1     0.0365
     63 H         -3.137131   0.375751   6.529187 H        1 UNL1     0.0576
     64 H         -5.36015   -1.716787   6.109373 H        1 UNL1     0.0615
     65 H         -3.885013   -0.662151   8.652908 H        1 UNL1     0.0622
     66 H         3.759146   3.180623   3.624474 H        1 UNL1     0.0645
     67 H         3.803765   1.518925   2.306532 H        1 UNL1     0.0362
     68 H         3.249764   2.785542   0.602203 H        1 UNL1     0.0741
     69 H         0.872499   2.799685   -0.570317 H        1 UNL1     0.0359
     70 H         -1.038837   3.143062   0.538015 H        1 UNL1     0.0600
     71 H         -1.685299   1.07334   0.482788 H        1 UNL1     0.0348
     72 H         -2.157706   1.500132   2.833687 H        1 UNL1     0.0602
     73 H         2.323748   1.93955   5.08198 H        1 UNL1     0.0628
     74 H         0.628214   4.4904   4.800988 H        1 UNL1     0.1022
     75 H         -6.913832   -3.328803   9.400934 H        1 UNL1     0.0279
     76 H         -5.702855   -4.443193   8.90599 H        1 UNL1     0.0279
     77 H         -5.828286   -3.863854   10.61594 H        1 UNL1     0.0279
     78 H         -3.169625   -3.969744   10.095407 H        1 UNL1     0.1553
     79 H         -2.877346   -3.983919   8.135663 H        1 UNL1     0.1484
     80 H         0.010882   -3.64377   5.689864 H        1 UNL1     0.0317
     81 H         0.232448   -3.606794   7.433271 H        1 UNL1     0.0317
     82 H         -1.4694   -5.423191   7.746513 H        1 UNL1     0.0428
     83 H         -0.159103   -5.899036   6.68897 H        1 UNL1     0.0428
     84 H         -3.784899   -4.705229   4.809723 H        1 UNL1     0.0428
     85 H         -3.777414   -4.699195   6.538604 H        1 UNL1     0.0428
     86 H         -3.440277   -2.5056   5.398721 H        1 UNL1     0.0317
     87 H         -2.021778   -3.021548   4.608778 H        1 UNL1     0.0317
     88 H         -2.605964   -7.269608   6.506278 H        1 UNL1     0.0429
     89 H         -3.156727   -7.007553   4.849708 H        1 UNL1     0.0429
     90 H         -0.268564   -7.553736   5.772275 H        1 UNL1     0.0308
     91 H         -1.931996   -9.341735   3.93558 H        1 UNL1     0.0233
     92 H         -0.479503   -9.746958   4.885083 H        1 UNL1     0.0233
     93 H         -2.024537   -9.539356   5.68156 H        1 UNL1     0.0233
     94 H         0.038411   -7.789918   3.19717 H        1 UNL1     0.0233
     95 H         -1.383594   -6.738441   3.115784 H        1 UNL1     0.0233
     96 H         0.085801   -6.182424   3.949878 H        1 UNL1     0.0233
     97 H         1.640872   3.603238   10.941136 H        1 UNL1     0.0280
     98 H         0.648871   3.333996   12.348485 H        1 UNL1     0.0280
     99 H         2.097937   2.320827   12.077509 H        1 UNL1     0.0280
     100 H         0.480579   0.965219   13.198233 H        1 UNL1     0.2922
     101 H         -5.106388   1.102149   3.240883 H        1 UNL1     0.0236
     102 H         -3.828422   2.372662   3.104274 H        1 UNL1     0.0236
     103 H         -4.728005   2.149426   4.572747 H        1 UNL1     0.0236
     104 H         -2.819806   0.037818   0.888964 H        1 UNL1     0.2098
     105 H         0.983811   0.270339   1.403503 H        1 UNL1     0.0234
     106 H         -0.295755   -0.974962   1.348436 H        1 UNL1     0.0234
     107 H         0.0   -0.0   0.0 H        1 UNL1     0.0234
     108 H         -0.707529   4.256889   2.216371 H        1 UNL1     0.2098
     109 H         1.918292   0.672639   4.110799 H        1 UNL1     0.0234
     110 H         1.38778   0.014462   2.530241 H        1 UNL1     0.0234
     111 H         2.989013   -0.285097   3.109174 H        1 UNL1     0.0234
     112 H         2.568793   -2.16098   -1.004028 H        1 UNL1     0.0342
     113 H         1.534713   -0.908486   -1.778737 H        1 UNL1     0.0342
     114 H         3.294513   -0.777191   -1.840683 H        1 UNL1     0.0342
     115 H         2.583073   4.646564   0.646012 H        1 UNL1     0.0234
     116 H         1.438963   4.885961   -0.678559 H        1 UNL1     0.0234
     117 H         1.006187   5.162185   1.021457 H        1 UNL1     0.0234
     118 H         2.856194   1.782092   6.252411 H        1 UNL1     0.0309
     119 H         3.216852   2.203517   7.955463 H        1 UNL1     0.0309
     120 H         2.430435   0.700114   7.527112 H        1 UNL1     0.0309
     121 H         0.50727   4.182623   3.873969 H        1 UNL1     0.0524
     122 H         1.687589   5.344841   4.4928 H        1 UNL1     0.0524
     123 H         0.792012   5.710286   2.99676 H        1 UNL1     0.0524
@<TRIPOS>BOND
     1     1     2    1
     2     1    42    1
     3     2     3    2
     4     3     4    1
     5     4     5    2
     6     5     7    1
     7     6    75    1
     8     6    76    1
     9     6    77    1
    10     7     9   am
    11     9    10    1
    12    10    11    2
    13    10    43    1
    14    11    14    1
    15    11    15    1
    16    12    13   ar
    17    12    27   ar
    18    12    43    1
    19    13    14    1
    20    13    30   ar
    21    14    17    2
    22    15    16    1
    23    16    17    1
    24    16    18    1
    25    16    22    1
    26    18    19    1
    27    19    20    1
    28    20    21    1
    29    21    22    1
    30    23    24    1
    31    23    88    1
    32    23    89    1
    33    24    25    1
    34    24    26    1
    35    24    90    1
    36    25    91    1
    37    25    92    1
    38    25    93    1
    39    26    94    1
    40    26    95    1
    41    26    96    1
    42    27    28   ar
    43    28    29   ar
    44    29    30   ar
    45    29    31    1
    46    30    33    1
    47    31    32    1
    48    32    33    1
    49    32    35    1
    50    34    97    1
    51    34    98    1
    52    34    99    1
    53    35    61    1
    54    36    37    1
    55    36    60    1
    56    37    38    1
    57    38    39    1
    58    39    40    1
    59    40    41    1
    60    41    42    1
    61    45   100    1
    62    47   101    1
    63    47   102    1
    64    47   103    1
    65    48   104    1
    66    49   105    1
    67    49   106    1
    68    49   107    1
    69    50   108    1
    70    51    59    1
    71    52   109    1
    72    52   110    1
    73    52   111    1
    74    53    54    1
    75    54    55    2
    76    54    56    1
    77    56   112    1
    78    56   113    1
    79    56   114    1
    80    57   115    1
    81    57   116    1
    82    57   117    1
    83    58   118    1
    84    58   119    1
    85    58   120    1
    86    59   121    1
    87    59   122    1
    88    59   123    1
    89    60    61    2
    90     1    47    1
    91     1    62    1
    92     2    63    1
    93     3    64    1
    94     4    65    1
    95     5     6    1
    96     7     8    2
    97     9    78    1
    98    15    79    1
    99    18    80    1
   100    18    81    1
   101    19    82    1
   102    19    83    1
   103    20    23    1
   104    21    84    1
   105    21    85    1
   106    22    86    1
   107    22    87    1
   108    27    45    1
   109    28    34    1
   110    32    58    1
   111    33    46    2
   112    36    51    1
   113    36    66    1
   114    37    52    1
   115    37    67    1
   116    38    53    1
   117    38    68    1
   118    42    48    1
   119    42    72    1
   120    43    44    2
   121    60    73    1
   122    61    74    1
   123    39    69    1
   124    39    57    1
   125    40    70    1
   126    40    50    1
   127    41    71    1
   128    41    49    1
