@<TRIPOS>MOLECULE
*****
 123 128 0 0 0
SMALL
GASTEIGER

@<TRIPOS>ATOM
     1 C         -3.018078   -2.548844   -3.468465 C.3        1 UNL1     0.0009
     2 C         -3.199066   -4.225811   -4.237921 C.2        1 UNL1     -0.0787
     3 C         -3.144989   -5.086747   -5.400638 C.2        1 UNL1     -0.0649
     4 C         -3.324845   -6.769189   -5.458927 C.2        1 UNL1     -0.0542
     5 C         -3.073654   -7.938052   -6.219019 C.2        1 UNL1     0.0115
     6 C         -2.599356   -8.458776   -7.603653 C.3        1 UNL1     -0.0348
     7 C         -3.139501   -9.367239   -5.490954 C.2        1 UNL1     0.2441
     8 O         -4.094177   -10.124765   -5.597137 O.2        1 UNL1     -0.2702
     9 N         -1.922935   -9.802894   -4.93749 N.am        1 UNL1     -0.2772
     10 C         -1.786463   -9.336065   -3.650335 C.2        1 UNL1     0.1049
     11 C         -1.327593   -8.104158   -3.523576 C.2        1 UNL1     0.0801
     12 C         -2.996248   -9.151089   -1.468698 C.ar        1 UNL1     0.0753
     13 C         -2.64734   -7.763039   -1.482438 C.ar        1 UNL1     0.0305
     14 C         -1.689511   -7.224345   -2.445466 C.2        1 UNL1     0.0924
     15 N         -0.76954   -7.29191   -4.437554 N.pl3        1 UNL1     -0.3170
     16 C         -0.28522   -6.124258   -3.750329 C.3        1 UNL1     0.1275
     17 N         -1.179025   -5.999896   -2.540631 N.2        1 UNL1     -0.2557
     18 C         1.104939   -6.457429   -3.217266 C.3        1 UNL1     0.0016
     19 C         1.975961   -6.908642   -4.378866 C.3        1 UNL1     0.0026
     20 N         2.035202   -5.836775   -5.363051 N.3        1 UNL1     -0.3018
     21 C         0.739155   -5.403771   -5.889492 C.3        1 UNL1     0.0026
     22 C         -0.11783   -4.9505   -4.706269 C.3        1 UNL1     0.0016
     23 C         3.068938   -6.041351   -6.35813 C.3        1 UNL1     0.0012
     24 C         4.137209   -7.013372   -5.833031 C.3        1 UNL1     -0.0339
     25 C         4.116607   -8.342525   -6.605679 C.3        1 UNL1     -0.0615
     26 C         5.50677   -6.35873   -5.88331 C.3        1 UNL1     -0.0615
     27 C         -3.815472   -9.679549   -0.473852 C.ar        1 UNL1     0.1347
     28 C         -4.311669   -8.929496   0.577461 C.ar        1 UNL1     0.0342
     29 C         -3.995287   -7.555699   0.516235 C.ar        1 UNL1     0.1435
     30 C         -3.205624   -7.00538   -0.494113 C.ar        1 UNL1     0.0774
     31 O         -4.312378   -6.71388   1.524104 O.3        1 UNL1     -0.4436
     32 C         -3.449522   -5.582031   1.336297 C.3        1 UNL1     0.3143
     33 C         -3.0735   -5.609769   -0.131372 C.2        1 UNL1     0.2504
     34 C         -4.982262   -9.472409   1.808578 C.3        1 UNL1     -0.0327
     35 O         -4.240151   -4.404852   1.542224 O.2        1 UNL1     -0.4528
     36 C         -1.858643   -1.774486   2.890437 C.3        1 UNL1     0.0854
     37 C         -0.530025   -1.212755   2.252663 C.3        1 UNL1     0.0236
     38 C         -0.483786   0.381071   2.08142 C.3        1 UNL1     0.1131
     39 C         -1.682999   1.129578   1.371565 C.3        1 UNL1     0.0200
     40 C         -2.360506   0.509209   -0.020759 C.3        1 UNL1     0.0661
     41 C         -1.511139   0.00537   -1.40001 C.3        1 UNL1     0.0091
     42 C         -1.885365   -1.322762   -2.608903 C.3        1 UNL1     0.0661
     43 C         -2.384155   -10.027263   -2.498222 C.2        1 UNL1     0.2131
     44 O         -2.274122   -11.233799   -2.376154 O.2        1 UNL1     -0.2851
     45 O         -4.144171   -11.030888   -0.55916 O.3        1 UNL1     -0.5056
     46 O         -2.757665   -4.684832   -0.84593 O.2        1 UNL1     -0.2836
     47 C         -4.22994   -1.652013   -3.838691 C.3        1 UNL1     -0.0566
     48 O         -1.63528   -0.46965   -3.795821 O.3        1 UNL1     -0.3909
     49 C         -0.043959   -0.114544   -1.052885 C.3        1 UNL1     -0.0577
     50 O         -3.376263   -0.423622   0.288735 O.3        1 UNL1     -0.3910
     51 O         -2.899625   -0.840522   3.067918 O.3        1 UNL1     -0.3753
     52 C         0.051955   -2.182042   1.172508 C.3        1 UNL1     -0.0564
     53 O         0.891872   0.916325   1.810506 O.3        1 UNL1     -0.4608
     54 C         1.450635   1.081882   0.570222 C.2        1 UNL1     0.3042
     55 O         2.159844   2.012095   0.188692 O.2        1 UNL1     -0.2512
     56 C         1.178057   -0.058221   -0.369236 C.3        1 UNL1     0.0332
     57 C         -2.673454   1.647131   2.515817 C.3        1 UNL1     -0.0567
     58 C         -2.182774   -5.852772   2.181032 C.3        1 UNL1     0.0210
     59 C         -4.211939   -1.357531   2.852517 C.3        1 UNL1     0.0372
     60 C         -2.448139   -2.94558   2.186027 C.2        1 UNL1     -0.0208
     61 C         -3.711773   -3.20395   1.846587 C.2        1 UNL1     0.0882
     62 H         -3.244644   -2.993572   -2.491943 H        1 UNL1     0.0365
     63 H         -3.553418   -4.805043   -3.382706 H        1 UNL1     0.0576
     64 H         -2.805369   -4.717588   -6.370941 H        1 UNL1     0.0615
     65 H         -3.738633   -7.021159   -4.478737 H        1 UNL1     0.0622
     66 H         -1.555842   -2.140204   3.881702 H        1 UNL1     0.0645
     67 H         0.231369   -1.37151   3.036012 H        1 UNL1     0.0362
     68 H         -0.537519   0.681337   3.139 H        1 UNL1     0.0741
     69 H         -1.344645   2.107299   1.055357 H        1 UNL1     0.0359
     70 H         -2.905723   1.402211   -0.381793 H        1 UNL1     0.0600
     71 H         -1.519377   0.945232   -1.986139 H        1 UNL1     0.0348
     72 H         -2.833542   -1.102364   -2.097336 H        1 UNL1     0.0602
     73 H         -1.703364   -3.692867   2.067197 H        1 UNL1     0.0628
     74 H         -4.521512   -2.474397   1.882816 H        1 UNL1     0.1022
     75 H         -1.550105   -8.836038   -7.542182 H        1 UNL1     0.0279
     76 H         -3.133067   -9.315699   -8.008502 H        1 UNL1     0.0279
     77 H         -2.497658   -7.655497   -8.348034 H        1 UNL1     0.0279
     78 H         -1.147103   -9.43165   -5.481862 H        1 UNL1     0.1553
     79 H         -0.379383   -7.613603   -5.304286 H        1 UNL1     0.1484
     80 H         1.521399   -5.57005   -2.725446 H        1 UNL1     0.0317
     81 H         1.05409   -7.243013   -2.455739 H        1 UNL1     0.0317
     82 H         1.602772   -7.839912   -4.829842 H        1 UNL1     0.0428
     83 H         2.961897   -7.142887   -3.976238 H        1 UNL1     0.0428
     84 H         0.804873   -4.545613   -6.565553 H        1 UNL1     0.0428
     85 H         0.262613   -6.185834   -6.496618 H        1 UNL1     0.0428
     86 H         -1.001879   -4.518786   -5.137624 H        1 UNL1     0.0317
     87 H         0.359072   -4.101318   -4.201738 H        1 UNL1     0.0317
     88 H         2.602928   -6.482239   -7.249054 H        1 UNL1     0.0429
     89 H         3.51815   -5.089024   -6.668059 H        1 UNL1     0.0429
     90 H         3.943635   -7.221978   -4.774151 H        1 UNL1     0.0308
     91 H         3.690958   -8.214817   -7.605487 H        1 UNL1     0.0233
     92 H         5.125103   -8.753093   -6.695001 H        1 UNL1     0.0233
     93 H         3.517648   -9.109962   -6.100581 H        1 UNL1     0.0233
     94 H         6.277877   -7.071762   -5.572161 H        1 UNL1     0.0233
     95 H         5.732567   -6.042779   -6.905637 H        1 UNL1     0.0233
     96 H         5.556653   -5.486736   -5.225203 H        1 UNL1     0.0233
     97 H         -5.966726   -9.876231   1.591812 H        1 UNL1     0.0280
     98 H         -4.413089   -10.294823   2.261274 H        1 UNL1     0.0280
     99 H         -5.095274   -8.667134   2.552794 H        1 UNL1     0.0280
     100 H         -3.421639   -11.618789   -0.425208 H        1 UNL1     0.2922
     101 H         -4.860821   -1.506215   -2.962114 H        1 UNL1     0.0236
     102 H         -4.795146   -2.025931   -4.691751 H        1 UNL1     0.0236
     103 H         -3.918628   -0.635425   -4.131654 H        1 UNL1     0.0236
     104 H         -2.324719   0.222725   -3.81195 H        1 UNL1     0.2098
     105 H         0.399367   -1.075431   -1.301823 H        1 UNL1     0.0234
     106 H         0.580092   0.697426   -1.425971 H        1 UNL1     0.0234
     107 H         0.0   0.0   0.0 H        1 UNL1     0.0234
     108 H         -4.152846   0.083761   0.594104 H        1 UNL1     0.2098
     109 H         -0.670629   -2.954401   0.874104 H        1 UNL1     0.0234
     110 H         0.421313   -1.662178   0.28197 H        1 UNL1     0.0234
     111 H         0.929871   -2.725146   1.547004 H        1 UNL1     0.0234
     112 H         0.179377   0.048106   -0.803607 H        1 UNL1     0.0342
     113 H         1.935962   -0.138092   -1.147082 H        1 UNL1     0.0342
     114 H         1.195778   -0.991741   0.209893 H        1 UNL1     0.0342
     115 H         -2.812011   2.736282   2.474114 H        1 UNL1     0.0234
     116 H         -3.663943   1.188752   2.486324 H        1 UNL1     0.0234
     117 H         -2.270723   1.522449   3.53572 H        1 UNL1     0.0234
     118 H         -1.266496   -5.492289   1.681539 H        1 UNL1     0.0309
     119 H         -2.236184   -5.421727   3.185796 H        1 UNL1     0.0309
     120 H         -1.990698   -6.922339   2.319738 H        1 UNL1     0.0309
     121 H         -4.525048   -1.854934   3.770073 H        1 UNL1     0.0524
     122 H         -4.945231   -0.562006   2.639304 H        1 UNL1     0.0524
     123 H         -4.207035   -2.063121   2.026556 H        1 UNL1     0.0524
@<TRIPOS>BOND
     1     1     2    1
     2     1    42    1
     3     2     3    2
     4     3     4    1
     5     4     5    2
     6     5     7    1
     7     6    75    1
     8     6    76    1
     9     6    77    1
    10     7     9   am
    11     9    10    1
    12    10    11    2
    13    10    43    1
    14    11    14    1
    15    11    15    1
    16    12    13   ar
    17    12    27   ar
    18    12    43    1
    19    13    14    1
    20    13    30   ar
    21    14    17    2
    22    15    16    1
    23    16    17    1
    24    16    18    1
    25    16    22    1
    26    18    19    1
    27    19    20    1
    28    20    21    1
    29    21    22    1
    30    23    24    1
    31    23    88    1
    32    23    89    1
    33    24    25    1
    34    24    26    1
    35    24    90    1
    36    25    91    1
    37    25    92    1
    38    25    93    1
    39    26    94    1
    40    26    95    1
    41    26    96    1
    42    27    28   ar
    43    28    29   ar
    44    29    30   ar
    45    29    31    1
    46    30    33    1
    47    31    32    1
    48    32    33    1
    49    32    35    1
    50    34    97    1
    51    34    98    1
    52    34    99    1
    53    35    61    1
    54    36    37    1
    55    36    60    1
    56    37    38    1
    57    38    39    1
    58    39    40    1
    59    40    41    1
    60    41    42    1
    61    45   100    1
    62    47   101    1
    63    47   102    1
    64    47   103    1
    65    48   104    1
    66    49   105    1
    67    49   106    1
    68    49   107    1
    69    50   108    1
    70    51    59    1
    71    52   109    1
    72    52   110    1
    73    52   111    1
    74    53    54    1
    75    54    55    2
    76    54    56    1
    77    56   112    1
    78    56   113    1
    79    56   114    1
    80    57   115    1
    81    57   116    1
    82    57   117    1
    83    58   118    1
    84    58   119    1
    85    58   120    1
    86    59   121    1
    87    59   122    1
    88    59   123    1
    89    60    61    2
    90     1    47    1
    91     1    62    1
    92     2    63    1
    93     3    64    1
    94     4    65    1
    95     5     6    1
    96     7     8    2
    97     9    78    1
    98    15    79    1
    99    18    80    1
   100    18    81    1
   101    19    82    1
   102    19    83    1
   103    20    23    1
   104    21    84    1
   105    21    85    1
   106    22    86    1
   107    22    87    1
   108    27    45    1
   109    28    34    1
   110    32    58    1
   111    33    46    2
   112    36    51    1
   113    36    66    1
   114    37    52    1
   115    37    67    1
   116    38    53    1
   117    38    68    1
   118    42    48    1
   119    42    72    1
   120    43    44    2
   121    60    73    1
   122    61    74    1
   123    39    69    1
   124    39    57    1
   125    40    70    1
   126    40    50    1
   127    41    71    1
   128    41    49    1
