@<TRIPOS>MOLECULE
*****
 123 128 0 0 0
SMALL
GASTEIGER

@<TRIPOS>ATOM
     1 C         -1.376505   -2.613368   -4.587696 C.3        1 UNL1     0.0009
     2 C         -2.287943   -4.070536   -5.282663 C.2        1 UNL1     -0.0787
     3 C         -2.278496   -5.378556   -5.90318 C.2        1 UNL1     -0.0649
     4 C         -3.600964   -6.381666   -6.236657 C.2        1 UNL1     -0.0542
     5 C         -4.010725   -7.709731   -6.51128 C.2        1 UNL1     0.0115
     6 C         -3.500972   -9.13661   -6.854049 C.3        1 UNL1     -0.0348
     7 C         -5.556751   -8.099884   -6.325339 C.2        1 UNL1     0.2441
     8 O         -6.332043   -8.213332   -7.264795 O.2        1 UNL1     -0.2702
     9 N         -5.898465   -8.556883   -5.040607 N.am        1 UNL1     -0.2772
     10 C         -6.236656   -7.498691   -4.228708 C.2        1 UNL1     0.1049
     11 C         -5.231971   -6.855984   -3.661472 C.2        1 UNL1     0.0801
     12 C         -7.653816   -5.439228   -4.141534 C.ar        1 UNL1     0.0753
     13 C         -6.475585   -4.740894   -3.725953 C.ar        1 UNL1     0.0305
     14 C         -5.257788   -5.453412   -3.346033 C.2        1 UNL1     0.0924
     15 N         -3.932579   -7.188568   -3.574898 N.pl3        1 UNL1     -0.3170
     16 C         -3.292132   -6.236232   -2.707063 C.3        1 UNL1     0.1275
     17 N         -4.118553   -4.981273   -2.847881 N.2        1 UNL1     -0.2557
     18 C         -3.497584   -6.720089   -1.274802 C.3        1 UNL1     0.0016
     19 C         -2.958955   -8.137082   -1.158187 C.3        1 UNL1     0.0026
     20 N         -1.546126   -8.131021   -1.511608 N.3        1 UNL1     -0.3018
     21 C         -1.242466   -7.622819   -2.85097 C.3        1 UNL1     0.0026
     22 C         -1.788246   -6.196884   -2.944396 C.3        1 UNL1     0.0016
     23 C         -0.868846   -9.360045   -1.149067 C.3        1 UNL1     0.0012
     24 C         -1.054633   -10.420968   -2.24528 C.3        1 UNL1     -0.0339
     25 C         0.269793   -11.130673   -2.571272 C.3        1 UNL1     -0.0615
     26 C         -2.132563   -11.409543   -1.83593 C.3        1 UNL1     -0.0615
     27 C         -8.846072   -4.76168   -4.385611 C.ar        1 UNL1     0.1347
     28 C         -8.992211   -3.39713   -4.210398 C.ar        1 UNL1     0.0342
     29 C         -7.80629   -2.723729   -3.848065 C.ar        1 UNL1     0.1435
     30 C         -6.595784   -3.384487   -3.635243 C.ar        1 UNL1     0.0774
     31 O         -7.809897   -1.41   -3.533249 O.3        1 UNL1     -0.4436
     32 C         -6.598715   -1.212242   -2.788398 C.3        1 UNL1     0.3143
     33 C         -5.683136   -2.342324   -3.213655 C.2        1 UNL1     0.2504
     34 C         -10.292573   -2.642708   -4.208453 C.3        1 UNL1     -0.0327
     35 O         -6.004578   0.004728   -3.256624 O.2        1 UNL1     -0.4528
     36 C         -4.114203   1.44575   -0.297227 C.3        1 UNL1     0.0854
     37 C         -2.968905   0.791625   0.567605 C.3        1 UNL1     0.0236
     38 C         -1.618526   1.651438   0.662173 C.3        1 UNL1     0.1131
     39 C         -0.939332   2.194452   -0.659228 C.3        1 UNL1     0.0200
     40 C         -0.800142   1.214407   -2.001829 C.3        1 UNL1     0.0661
     41 C         -0.183482   -0.365797   -2.018942 C.3        1 UNL1     0.0091
     42 C         -0.621802   -1.802928   -3.071526 C.3        1 UNL1     0.0661
     43 C         -7.588378   -6.919833   -4.217593 C.2        1 UNL1     0.2131
     44 O         -8.568844   -7.640276   -4.16873 O.2        1 UNL1     -0.2851
     45 O         -9.933821   -5.509991   -4.830886 O.3        1 UNL1     -0.5056
     46 O         -4.472732   -2.368409   -3.223392 O.2        1 UNL1     -0.2836
     47 C         -0.779541   -1.753806   -5.734329 C.3        1 UNL1     -0.0566
     48 O         0.786097   -2.148516   -3.383785 O.3        1 UNL1     -0.3909
     49 C         -0.096647   -0.871187   -0.59608 C.3        1 UNL1     -0.0577
     50 O         -1.965568   1.286917   -2.798226 O.3        1 UNL1     -0.3910
     51 O         -3.757715   2.604883   -1.016086 O.3        1 UNL1     -0.3753
     52 C         -2.954728   -0.766031   0.43175 C.3        1 UNL1     -0.0564
     53 O         -0.691671   1.19612   1.751187 O.3        1 UNL1     -0.4608
     54 C         0.654384   1.44718   1.806291 C.2        1 UNL1     0.3042
     55 O         1.541825   0.911285   1.143642 O.2        1 UNL1     -0.2512
     56 C         1.022309   2.547804   2.760215 C.3        1 UNL1     0.0332
     57 C         -1.447241   3.694778   -0.881095 C.3        1 UNL1     -0.0567
     58 C         -6.965843   -1.401545   -1.298126 C.3        1 UNL1     0.0210
     59 C         -4.7844   3.127597   -1.857841 C.3        1 UNL1     0.0372
     60 C         -4.774651   0.527117   -1.264224 C.2        1 UNL1     -0.0208
     61 C         -5.107732   0.711532   -2.542423 C.2        1 UNL1     0.0882
     62 H         -2.340073   -2.159908   -4.325734 H        1 UNL1     0.0365
     63 H         -3.319752   -3.721806   -5.20376 H        1 UNL1     0.0576
     64 H         -1.34811   -5.925408   -6.071828 H        1 UNL1     0.0615
     65 H         -4.464957   -5.722523   -6.116118 H        1 UNL1     0.0622
     66 H         -4.888028   1.721708   0.432903 H        1 UNL1     0.0645
     67 H         -3.344232   0.857799   1.603612 H        1 UNL1     0.0362
     68 H         -2.004056   2.543091   1.179708 H        1 UNL1     0.0741
     69 H         0.089957   2.447657   -0.442756 H        1 UNL1     0.0359
     70 H         -0.039281   1.780174   -2.572845 H        1 UNL1     0.0600
     71 H         0.881347   -0.155359   -2.239876 H        1 UNL1     0.0348
     72 H         -0.987921   -0.913595   -3.60478 H        1 UNL1     0.0602
     73 H         -5.095911   -0.346096   -0.752815 H        1 UNL1     0.0628
     74 H         -4.769769   1.549505   -3.153013 H        1 UNL1     0.1022
     75 H         -3.149577   -9.183492   -7.912991 H        1 UNL1     0.0279
     76 H         -2.630986   -9.486402   -6.302833 H        1 UNL1     0.0279
     77 H         -4.306065   -9.885941   -6.859411 H        1 UNL1     0.0279
     78 H         -5.097616   -9.022712   -4.619038 H        1 UNL1     0.1553
     79 H         -3.586093   -8.120692   -3.709156 H        1 UNL1     0.1484
     80 H         -2.98094   -6.037536   -0.589262 H        1 UNL1     0.0317
     81 H         -4.557995   -6.695326   -1.001734 H        1 UNL1     0.0317
     82 H         -3.521963   -8.839916   -1.789819 H        1 UNL1     0.0428
     83 H         -3.117135   -8.463153   -0.129738 H        1 UNL1     0.0428
     84 H         -0.170654   -7.554065   -3.061452 H        1 UNL1     0.0428
     85 H         -1.626661   -8.287364   -3.637157 H        1 UNL1     0.0428
     86 H         -1.433631   -5.81201   -3.882537 H        1 UNL1     0.0317
     87 H         -1.292998   -5.556846   -2.204007 H        1 UNL1     0.0317
     88 H         0.202869   -9.143177   -1.050632 H        1 UNL1     0.0429
     89 H         -1.212391   -9.732383   -0.175355 H        1 UNL1     0.0429
     90 H         -1.42398   -9.93529   -3.156275 H        1 UNL1     0.0308
     91 H         0.924479   -11.172789   -1.69565 H        1 UNL1     0.0233
     92 H         0.085794   -12.145856   -2.930657 H        1 UNL1     0.0233
     93 H         0.83163   -10.622641   -3.364416 H        1 UNL1     0.0233
     94 H         -2.172075   -12.241385   -2.547487 H        1 UNL1     0.0233
     95 H         -1.906451   -11.821178   -0.848311 H        1 UNL1     0.0233
     96 H         -3.117471   -10.935325   -1.803656 H        1 UNL1     0.0233
     97 H         -11.111759   -3.243742   -3.825148 H        1 UNL1     0.0280
     98 H         -10.251739   -1.74931   -3.571719 H        1 UNL1     0.0280
     99 H         -10.541928   -2.334448   -5.236992 H        1 UNL1     0.0280
     100 H         -9.704774   -6.303099   -5.282705 H        1 UNL1     0.2922
     101 H         -1.373958   -0.849607   -5.863749 H        1 UNL1     0.0236
     102 H         -0.664125   -2.304409   -6.667334 H        1 UNL1     0.0236
     103 H         0.233912   -1.390632   -5.495141 H        1 UNL1     0.0236
     104 H         1.090926   -2.783978   -2.706852 H        1 UNL1     0.2098
     105 H         -0.977296   -1.410624   -0.256556 H        1 UNL1     0.0234
     106 H         0.805301   -1.439344   -0.368891 H        1 UNL1     0.0234
     107 H         0.0   0.0   0.0 H        1 UNL1     0.0234
     108 H         -2.265994   2.216123   -2.788843 H        1 UNL1     0.2098
     109 H         -2.803335   -1.091636   -0.60689 H        1 UNL1     0.0234
     110 H         -2.213501   -1.24774   1.078497 H        1 UNL1     0.0234
     111 H         -3.909547   -1.208383   0.745745 H        1 UNL1     0.0234
     112 H         2.108802   2.676374   2.778887 H        1 UNL1     0.0342
     113 H         0.522178   3.484216   2.517638 H        1 UNL1     0.0342
     114 H         0.70104   2.250151   3.767862 H        1 UNL1     0.0342
     115 H         -2.510018   3.808035   -0.626408 H        1 UNL1     0.0234
     116 H         -0.891338   4.440741   -0.309641 H        1 UNL1     0.0234
     117 H         -1.447296   4.007208   -1.939551 H        1 UNL1     0.0234
     118 H         -7.559855   -0.557064   -0.906962 H        1 UNL1     0.0309
     119 H         -7.500644   -2.336446   -1.102805 H        1 UNL1     0.0309
     120 H         -6.085248   -1.414124   -0.646589 H        1 UNL1     0.0309
     121 H         -4.998999   2.378875   -2.61989 H        1 UNL1     0.0524
     122 H         -5.720434   3.318284   -1.306917 H        1 UNL1     0.0524
     123 H         -4.454539   4.052143   -2.323137 H        1 UNL1     0.0524
@<TRIPOS>BOND
     1     1     2    1
     2     1    42    1
     3     2     3    2
     4     3     4    1
     5     4     5    2
     6     5     7    1
     7     6    75    1
     8     6    76    1
     9     6    77    1
    10     7     9   am
    11     9    10    1
    12    10    11    2
    13    10    43    1
    14    11    14    1
    15    11    15    1
    16    12    13   ar
    17    12    27   ar
    18    12    43    1
    19    13    14    1
    20    13    30   ar
    21    14    17    2
    22    15    16    1
    23    16    17    1
    24    16    18    1
    25    16    22    1
    26    18    19    1
    27    19    20    1
    28    20    21    1
    29    21    22    1
    30    23    24    1
    31    23    88    1
    32    23    89    1
    33    24    25    1
    34    24    26    1
    35    24    90    1
    36    25    91    1
    37    25    92    1
    38    25    93    1
    39    26    94    1
    40    26    95    1
    41    26    96    1
    42    27    28   ar
    43    28    29   ar
    44    29    30   ar
    45    29    31    1
    46    30    33    1
    47    31    32    1
    48    32    33    1
    49    32    35    1
    50    34    97    1
    51    34    98    1
    52    34    99    1
    53    35    61    1
    54    36    37    1
    55    36    60    1
    56    37    38    1
    57    38    39    1
    58    39    40    1
    59    40    41    1
    60    41    42    1
    61    45   100    1
    62    47   101    1
    63    47   102    1
    64    47   103    1
    65    48   104    1
    66    49   105    1
    67    49   106    1
    68    49   107    1
    69    50   108    1
    70    51    59    1
    71    52   109    1
    72    52   110    1
    73    52   111    1
    74    53    54    1
    75    54    55    2
    76    54    56    1
    77    56   112    1
    78    56   113    1
    79    56   114    1
    80    57   115    1
    81    57   116    1
    82    57   117    1
    83    58   118    1
    84    58   119    1
    85    58   120    1
    86    59   121    1
    87    59   122    1
    88    59   123    1
    89    60    61    2
    90     1    47    1
    91     1    62    1
    92     2    63    1
    93     3    64    1
    94     4    65    1
    95     5     6    1
    96     7     8    2
    97     9    78    1
    98    15    79    1
    99    18    80    1
   100    18    81    1
   101    19    82    1
   102    19    83    1
   103    20    23    1
   104    21    84    1
   105    21    85    1
   106    22    86    1
   107    22    87    1
   108    27    45    1
   109    28    34    1
   110    32    58    1
   111    33    46    2
   112    36    51    1
   113    36    66    1
   114    37    52    1
   115    37    67    1
   116    38    53    1
   117    38    68    1
   118    42    48    1
   119    42    72    1
   120    43    44    2
   121    60    73    1
   122    61    74    1
   123    39    69    1
   124    39    57    1
   125    40    70    1
   126    40    50    1
   127    41    71    1
   128    41    49    1
