@<TRIPOS>MOLECULE
*****
 123 128 0 0 0
SMALL
GASTEIGER

@<TRIPOS>ATOM
     1 C         5.167028   1.758757   0.455931 C.3        1 UNL1     0.0009
     2 C         6.596463   2.567201   -0.4044 C.2        1 UNL1     -0.0787
     3 C         7.874038   2.47114   -1.078655 C.2        1 UNL1     -0.0649
     4 C         8.744071   3.707585   -1.840629 C.2        1 UNL1     -0.0542
     5 C         9.757234   4.001742   -2.786171 C.2        1 UNL1     0.0115
     6 C         10.880791   3.378046   -3.659067 C.3        1 UNL1     -0.0348
     7 C         9.845706   5.484908   -3.393937 C.2        1 UNL1     0.2441
     8 O         10.670545   6.308275   -3.022141 O.2        1 UNL1     -0.2702
     9 N         9.087272   5.689943   -4.559652 N.am        1 UNL1     -0.2772
     10 C         7.805958   6.07434   -4.237479 C.2        1 UNL1     0.1049
     11 C         6.963984   5.101462   -3.939472 C.2        1 UNL1     0.0801
     12 C         6.514007   7.679161   -2.818766 C.ar        1 UNL1     0.0753
     13 C         5.760096   6.550012   -2.36572 C.ar        1 UNL1     0.0305
     14 C         5.875171   5.24425   -3.011315 C.2        1 UNL1     0.0924
     15 N         7.088047   3.772648   -4.098809 N.pl3        1 UNL1     -0.3170
     16 C         5.821455   3.171221   -3.775879 C.3        1 UNL1     0.1275
     17 N         5.189827   4.125685   -2.792127 N.2        1 UNL1     -0.2557
     18 C         4.960054   3.228124   -5.033834 C.3        1 UNL1     0.0016
     19 C         5.708652   2.54496   -6.167182 C.3        1 UNL1     0.0026
     20 N         5.983976   1.167541   -5.78255 N.3        1 UNL1     -0.3018
     21 C         6.755916   1.009135   -4.548295 C.3        1 UNL1     0.0026
     22 C         5.983391   1.698679   -3.422405 C.3        1 UNL1     0.0016
     23 C         6.42259   0.348353   -6.894841 C.3        1 UNL1     0.0012
     24 C         5.261068   0.096264   -7.869046 C.3        1 UNL1     -0.0339
     25 C         5.346235   1.0185   -9.096353 C.3        1 UNL1     -0.0615
     26 C         5.227203   -1.367912   -8.271318 C.3        1 UNL1     -0.0615
     27 C         6.31057   8.946705   -2.278336 C.ar        1 UNL1     0.1347
     28 C         5.357454   9.214868   -1.31205 C.ar        1 UNL1     0.0342
     29 C         4.661137   8.0793   -0.84644 C.ar        1 UNL1     0.1435
     30 C         4.879612   6.797465   -1.352788 C.ar        1 UNL1     0.0774
     31 O         3.625673   8.191281   0.013956 O.3        1 UNL1     -0.4436
     32 C         2.90539   6.957038   -0.122834 C.3        1 UNL1     0.3143
     33 C         3.916975   5.96561   -0.661332 C.2        1 UNL1     0.2504
     34 C         4.910997   10.580322   -0.86898 C.3        1 UNL1     -0.0327
     35 O         2.554407   6.520245   1.195982 O.2        1 UNL1     -0.4528
     36 C         -0.687568   4.581767   0.821832 C.3        1 UNL1     0.0854
     37 C         -0.996498   3.320207   -0.072904 C.3        1 UNL1     0.0236
     38 C         -1.589375   2.058386   0.71959 C.3        1 UNL1     0.1131
     39 C         -0.853907   1.529405   2.016331 C.3        1 UNL1     0.0200
     40 C         0.807796   1.387013   2.046425 C.3        1 UNL1     0.0661
     41 C         1.760759   0.619469   0.871542 C.3        1 UNL1     0.0091
     42 C         3.463838   0.984993   0.295943 C.3        1 UNL1     0.0661
     43 C         7.456903   7.472747   -3.945974 C.2        1 UNL1     0.2131
     44 O         7.850263   8.371253   -4.667564 O.2        1 UNL1     -0.2851
     45 O         7.117787   9.983136   -2.742716 O.3        1 UNL1     -0.5056
     46 O         3.936114   4.762167   -0.530136 O.2        1 UNL1     -0.2836
     47 C         5.573835   1.330679   1.891633 C.3        1 UNL1     -0.0566
     48 O         3.915605   -0.425227   0.37534 O.3        1 UNL1     -0.3909
     49 C         0.918716   0.384744   -0.362703 C.3        1 UNL1     -0.0577
     50 O         1.408314   2.606183   2.434658 O.3        1 UNL1     -0.3910
     51 O         -0.801963   4.392491   2.214139 O.3        1 UNL1     -0.3753
     52 C         0.040505   3.161181   -1.232337 C.3        1 UNL1     -0.0564
     53 O         -2.196036   1.017858   -0.175725 O.3        1 UNL1     -0.4608
     54 C         -2.394552   -0.297263   0.154391 C.2        1 UNL1     0.3042
     55 O         -1.812818   -1.278865   -0.305916 O.2        1 UNL1     -0.2512
     56 C         -3.408234   -0.497178   1.244893 C.3        1 UNL1     0.0332
     57 C         -1.567721   2.197614   3.282089 C.3        1 UNL1     -0.0567
     58 C         1.822486   7.199607   -1.199871 C.3        1 UNL1     0.0210
     59 C         -1.112413   5.571242   2.955781 C.3        1 UNL1     0.0372
     60 C         0.638662   5.213248   0.582024 C.2        1 UNL1     -0.0208
     61 C         1.556586   5.650599   1.445091 C.2        1 UNL1     0.0882
     62 H         4.689847   2.742071   0.545952 H        1 UNL1     0.0365
     63 H         6.32894   3.620545   -0.297782 H        1 UNL1     0.0576
     64 H         8.332022   1.505053   -1.302337 H        1 UNL1     0.0615
     65 H         8.2576   4.622222   -1.490959 H        1 UNL1     0.0622
     66 H         -1.43569   5.326748   0.51628 H        1 UNL1     0.0645
     67 H         -1.866711   3.627661   -0.678512 H        1 UNL1     0.0362
     68 H         -2.534885   2.493639   1.077481 H        1 UNL1     0.0741
     69 H         -1.182203   0.517775   2.214407 H        1 UNL1     0.0359
     70 H         0.926729   0.727301   2.92716 H        1 UNL1     0.0600
     71 H         1.809132   -0.401415   1.29864 H        1 UNL1     0.0348
     72 H         3.363614   1.47345   1.276086 H        1 UNL1     0.0602
     73 H         0.749224   5.41024   -0.455385 H        1 UNL1     0.0628
     74 H         1.54662   5.440397   2.515116 H        1 UNL1     0.1022
     75 H         10.909631   2.269488   -3.527535 H        1 UNL1     0.0279
     76 H         10.773163   3.483414   -4.736278 H        1 UNL1     0.0279
     77 H         11.888408   3.662612   -3.322271 H        1 UNL1     0.0279
     78 H         9.02339   4.819636   -5.083638 H        1 UNL1     0.1553
     79 H         7.749963   3.345623   -4.72046 H        1 UNL1     0.1484
     80 H         4.001025   2.735472   -4.833027 H        1 UNL1     0.0317
     81 H         4.729677   4.264323   -5.303778 H        1 UNL1     0.0317
     82 H         6.636626   3.077897   -6.421652 H        1 UNL1     0.0428
     83 H         5.077423   2.598512   -7.054725 H        1 UNL1     0.0428
     84 H         6.880276   -0.033445   -4.239469 H        1 UNL1     0.0428
     85 H         7.784593   1.379057   -4.659195 H        1 UNL1     0.0428
     86 H         6.506372   1.449711   -2.517698 H        1 UNL1     0.0317
     87 H         5.005711   1.219258   -3.290524 H        1 UNL1     0.0317
     88 H         7.214072   0.891401   -7.427711 H        1 UNL1     0.0429
     89 H         6.859314   -0.59644   -6.546399 H        1 UNL1     0.0429
     90 H         4.312245   0.287358   -7.353846 H        1 UNL1     0.0308
     91 H         6.298298   0.895193   -9.621209 H        1 UNL1     0.0233
     92 H         4.525989   0.816336   -9.789126 H        1 UNL1     0.0233
     93 H         5.265765   2.078926   -8.828294 H        1 UNL1     0.0233
     94 H         4.545054   -1.511805   -9.116188 H        1 UNL1     0.0233
     95 H         6.223687   -1.692771   -8.583485 H        1 UNL1     0.0233
     96 H         4.89224   -2.001126   -7.444996 H        1 UNL1     0.0233
     97 H         4.116401   10.529515   -0.130559 H        1 UNL1     0.0280
     98 H         5.723442   11.14863   -0.397584 H        1 UNL1     0.0280
     99 H         4.539213   11.147137   -1.738229 H        1 UNL1     0.0280
     100 H         6.647205   10.733238   -3.061339 H        1 UNL1     0.2922
     101 H         4.712118   0.907065   2.407046 H        1 UNL1     0.0236
     102 H         6.038048   2.133783   2.463048 H        1 UNL1     0.0236
     103 H         6.322412   0.520869   1.885862 H        1 UNL1     0.0236
     104 H         4.335871   -0.551598   1.248482 H        1 UNL1     0.2098
     105 H         0.700527   1.282903   -0.934993 H        1 UNL1     0.0234
     106 H         1.285176   -0.40289   -1.020934 H        1 UNL1     0.0234
     107 H         0.0   -0.0   0.0 H        1 UNL1     0.0234
     108 H         1.218844   3.259093   1.733531 H        1 UNL1     0.2098
     109 H         1.069506   3.062211   -0.85941 H        1 UNL1     0.0234
     110 H         -0.188207   2.325727   -1.902748 H        1 UNL1     0.0234
     111 H         0.046818   4.038476   -1.892837 H        1 UNL1     0.0234
     112 H         -3.503297   -1.562966   1.473813 H        1 UNL1     0.0342
     113 H         -3.165562   0.074448   2.139431 H        1 UNL1     0.0342
     114 H         -4.381485   -0.143478   0.877682 H        1 UNL1     0.0342
     115 H         -2.63919   1.957503   3.320663 H        1 UNL1     0.0234
     116 H         -1.131955   1.909614   4.240845 H        1 UNL1     0.0234
     117 H         -1.597788   3.299969   3.239067 H        1 UNL1     0.0234
     118 H         0.921433   7.680774   -0.780838 H        1 UNL1     0.0309
     119 H         2.183771   7.791777   -2.046635 H        1 UNL1     0.0309
     120 H         1.436126   6.266837   -1.625043 H        1 UNL1     0.0309
     121 H         -0.276411   6.261078   2.843609 H        1 UNL1     0.0524
     122 H         -2.01484   6.078791   2.576231 H        1 UNL1     0.0524
     123 H         -1.259436   5.32782   4.004219 H        1 UNL1     0.0524
@<TRIPOS>BOND
     1     1     2    1
     2     1    42    1
     3     2     3    2
     4     3     4    1
     5     4     5    2
     6     5     7    1
     7     6    75    1
     8     6    76    1
     9     6    77    1
    10     7     9   am
    11     9    10    1
    12    10    11    2
    13    10    43    1
    14    11    14    1
    15    11    15    1
    16    12    13   ar
    17    12    27   ar
    18    12    43    1
    19    13    14    1
    20    13    30   ar
    21    14    17    2
    22    15    16    1
    23    16    17    1
    24    16    18    1
    25    16    22    1
    26    18    19    1
    27    19    20    1
    28    20    21    1
    29    21    22    1
    30    23    24    1
    31    23    88    1
    32    23    89    1
    33    24    25    1
    34    24    26    1
    35    24    90    1
    36    25    91    1
    37    25    92    1
    38    25    93    1
    39    26    94    1
    40    26    95    1
    41    26    96    1
    42    27    28   ar
    43    28    29   ar
    44    29    30   ar
    45    29    31    1
    46    30    33    1
    47    31    32    1
    48    32    33    1
    49    32    35    1
    50    34    97    1
    51    34    98    1
    52    34    99    1
    53    35    61    1
    54    36    37    1
    55    36    60    1
    56    37    38    1
    57    38    39    1
    58    39    40    1
    59    40    41    1
    60    41    42    1
    61    45   100    1
    62    47   101    1
    63    47   102    1
    64    47   103    1
    65    48   104    1
    66    49   105    1
    67    49   106    1
    68    49   107    1
    69    50   108    1
    70    51    59    1
    71    52   109    1
    72    52   110    1
    73    52   111    1
    74    53    54    1
    75    54    55    2
    76    54    56    1
    77    56   112    1
    78    56   113    1
    79    56   114    1
    80    57   115    1
    81    57   116    1
    82    57   117    1
    83    58   118    1
    84    58   119    1
    85    58   120    1
    86    59   121    1
    87    59   122    1
    88    59   123    1
    89    60    61    2
    90     1    47    1
    91     1    62    1
    92     2    63    1
    93     3    64    1
    94     4    65    1
    95     5     6    1
    96     7     8    2
    97     9    78    1
    98    15    79    1
    99    18    80    1
   100    18    81    1
   101    19    82    1
   102    19    83    1
   103    20    23    1
   104    21    84    1
   105    21    85    1
   106    22    86    1
   107    22    87    1
   108    27    45    1
   109    28    34    1
   110    32    58    1
   111    33    46    2
   112    36    51    1
   113    36    66    1
   114    37    52    1
   115    37    67    1
   116    38    53    1
   117    38    68    1
   118    42    48    1
   119    42    72    1
   120    43    44    2
   121    60    73    1
   122    61    74    1
   123    39    69    1
   124    39    57    1
   125    40    70    1
   126    40    50    1
   127    41    71    1
   128    41    49    1
