@<TRIPOS>MOLECULE
*****
 123 128 0 0 0
SMALL
GASTEIGER

@<TRIPOS>ATOM
     1 C         -0.128067   2.022643   3.735948 C.3        1 UNL1     0.0009
     2 C         -1.591521   2.251866   4.850755 C.2        1 UNL1     -0.0787
     3 C         -2.627964   3.097101   5.4052 C.2        1 UNL1     -0.0649
     4 C         -3.904097   2.647177   6.422751 C.2        1 UNL1     -0.0542
     5 C         -5.183625   3.0105   6.910483 C.2        1 UNL1     0.0115
     6 C         -6.22762   4.159564   6.965719 C.3        1 UNL1     -0.0348
     7 C         -6.103214   1.885363   7.592693 C.2        1 UNL1     0.2441
     8 O         -6.238727   1.781193   8.804019 O.2        1 UNL1     -0.2702
     9 N         -6.945936   1.195066   6.704177 N.am        1 UNL1     -0.2772
     10 C         -6.293767   0.106962   6.171235 C.2        1 UNL1     0.1049
     11 C         -5.509144   0.347973   5.136584 C.2        1 UNL1     0.0801
     12 C         -4.91686   -1.884369   6.800568 C.ar        1 UNL1     0.0753
     13 C         -3.986478   -1.459383   5.799376 C.ar        1 UNL1     0.0305
     14 C         -4.318056   -0.4031   4.845766 C.2        1 UNL1     0.0924
     15 N         -5.396311   1.450645   4.376381 N.pl3        1 UNL1     -0.3170
     16 C         -4.525292   1.137628   3.274746 C.3        1 UNL1     0.1275
     17 N         -3.626673   0.04574   3.801994 N.2        1 UNL1     -0.2557
     18 C         -5.382514   0.493409   2.189455 C.3        1 UNL1     0.0016
     19 C         -6.51939   1.440974   1.841284 C.3        1 UNL1     0.0026
     20 N         -5.953402   2.701938   1.382311 N.3        1 UNL1     -0.3018
     21 C         -5.063598   3.367714   2.335915 C.3        1 UNL1     0.0026
     22 C         -3.926619   2.399818   2.668104 C.3        1 UNL1     0.0016
     23 C         -6.932375   3.561496   0.747161 C.3        1 UNL1     0.0012
     24 C         -7.356993   2.982168   -0.611455 C.3        1 UNL1     -0.0339
     25 C         -7.658155   4.095536   -1.6282 C.3        1 UNL1     -0.0615
     26 C         -6.293318   2.02795   -1.126084 C.3        1 UNL1     -0.0615
     27 C         -4.64152   -2.971392   7.626817 C.ar        1 UNL1     0.1347
     28 C         -3.491396   -3.732853   7.519848 C.ar        1 UNL1     0.0342
     29 C         -2.568187   -3.266122   6.560154 C.ar        1 UNL1     0.1435
     30 C         -2.814525   -2.156954   5.750041 C.ar        1 UNL1     0.0774
     31 O         -1.450335   -3.962944   6.260397 O.3        1 UNL1     -0.4436
     32 C         -1.044398   -3.462903   4.977414 C.3        1 UNL1     0.3143
     33 C         -1.66193   -2.082788   4.876663 C.2        1 UNL1     0.2504
     34 C         -3.242172   -5.053116   8.194305 C.3        1 UNL1     -0.0327
     35 O         0.3764   -3.282062   5.020803 O.2        1 UNL1     -0.4528
     36 C         1.604026   -3.829654   1.470991 C.3        1 UNL1     0.0854
     37 C         1.183453   -3.085673   0.145422 C.3        1 UNL1     0.0236
     38 C         2.396587   -2.440556   -0.681546 C.3        1 UNL1     0.1131
     39 C         3.439866   -1.506881   0.054721 C.3        1 UNL1     0.0200
     40 C         2.92086   -0.351353   1.139999 C.3        1 UNL1     0.0661
     41 C         1.694152   0.788144   0.86734 C.3        1 UNL1     0.0091
     42 C         0.494734   1.546649   2.029868 C.3        1 UNL1     0.0661
     43 C         -6.223793   -1.184851   6.870289 C.2        1 UNL1     0.2131
     44 O         -7.220663   -1.669699   7.374183 O.2        1 UNL1     -0.2851
     45 O         -5.579774   -3.291411   8.605952 O.3        1 UNL1     -0.5056
     46 O         -1.276676   -1.129751   4.237012 O.2        1 UNL1     -0.2836
     47 C         1.133206   2.678073   4.360114 C.3        1 UNL1     -0.0566
     48 O         0.729057   2.929559   1.548443 O.3        1 UNL1     -0.3909
     49 C         0.91781   0.383738   -0.366047 C.3        1 UNL1     -0.0577
     50 O         2.788764   -0.903086   2.434551 O.3        1 UNL1     -0.3910
     51 O         2.953229   -3.689069   1.854811 O.3        1 UNL1     -0.3753
     52 C         -0.196295   -2.365384   0.295185 C.3        1 UNL1     -0.0564
     53 O         2.029098   -2.05527   -2.084697 O.3        1 UNL1     -0.4608
     54 C         2.91055   -1.666099   -3.059129 C.2        1 UNL1     0.3042
     55 O         3.346117   -0.533631   -3.263179 O.2        1 UNL1     -0.2512
     56 C         3.408659   -2.801254   -3.907671 C.3        1 UNL1     0.0332
     57 C         4.688462   -2.414765   0.472964 C.3        1 UNL1     -0.0567
     58 C         -1.70197   -4.38195   3.921725 C.3        1 UNL1     0.0210
     59 C         3.295447   -4.323952   3.085939 C.3        1 UNL1     0.0372
     60 C         0.781044   -3.49863   2.6661 C.2        1 UNL1     -0.0208
     61 C         1.147429   -3.221408   3.91816 C.2        1 UNL1     0.0882
     62 H         -0.102738   0.963359   4.018768 H        1 UNL1     0.0365
     63 H         -1.639961   1.27062   5.327493 H        1 UNL1     0.0576
     64 H         -2.772094   4.124671   5.063975 H        1 UNL1     0.0615
     65 H         -3.62379   1.647604   6.765918 H        1 UNL1     0.0622
     66 H         1.417855   -4.892519   1.261933 H        1 UNL1     0.0645
     67 H         0.865952   -3.899419   -0.529537 H        1 UNL1     0.0362
     68 H         2.952796   -3.355614   -0.936149 H        1 UNL1     0.0741
     69 H         3.963493   -0.917885   -0.686432 H        1 UNL1     0.0359
     70 H         3.830022   0.277174   1.198649 H        1 UNL1     0.0600
     71 H         2.297041   1.631621   0.477433 H        1 UNL1     0.0348
     72 H         1.310576   1.150302   2.65166 H        1 UNL1     0.0602
     73 H         -0.245742   -3.630949   2.430624 H        1 UNL1     0.0628
     74 H         2.171847   -3.014124   4.229349 H        1 UNL1     0.1022
     75 H         -5.736363   5.122412   7.246118 H        1 UNL1     0.0279
     76 H         -6.721019   4.412148   6.029862 H        1 UNL1     0.0279
     77 H         -6.9506   4.03822   7.785644 H        1 UNL1     0.0279
     78 H         -7.203208   1.806411   5.932073 H        1 UNL1     0.1553
     79 H         -6.095559   2.168833   4.329578 H        1 UNL1     0.1484
     80 H         -4.754318   0.283299   1.31539 H        1 UNL1     0.0317
     81 H         -5.782541   -0.468877   2.526552 H        1 UNL1     0.0317
     82 H         -7.19471   1.597768   2.695257 H        1 UNL1     0.0428
     83 H         -7.11906   0.961297   1.067104 H        1 UNL1     0.0428
     84 H         -4.58984   4.270207   1.93733 H        1 UNL1     0.0428
     85 H         -5.606465   3.721122   3.223448 H        1 UNL1     0.0428
     86 H         -3.229381   2.964127   3.259206 H        1 UNL1     0.0317
     87 H         -3.357623   2.16448   1.760383 H        1 UNL1     0.0317
     88 H         -7.8157   3.611647   1.397173 H        1 UNL1     0.0429
     89 H         -6.553499   4.586043   0.639786 H        1 UNL1     0.0429
     90 H         -8.261921   2.377772   -0.477203 H        1 UNL1     0.0308
     91 H         -6.847459   4.82931   -1.666279 H        1 UNL1     0.0233
     92 H         -7.810087   3.676865   -2.625817 H        1 UNL1     0.0233
     93 H         -8.574737   4.64648   -1.384947 H        1 UNL1     0.0233
     94 H         -6.378911   1.917279   -2.212483 H        1 UNL1     0.0233
     95 H         -5.298011   2.423424   -0.904889 H        1 UNL1     0.0233
     96 H         -6.389726   1.03899   -0.669322 H        1 UNL1     0.0233
     97 H         -3.038294   -5.844119   7.478777 H        1 UNL1     0.0280
     98 H         -2.370743   -5.01917   8.861175 H        1 UNL1     0.0280
     99 H         -4.128803   -5.339899   8.783147 H        1 UNL1     0.0280
     100 H         -5.865428   -2.562178   9.127721 H        1 UNL1     0.2922
     101 H         1.786873   1.905659   4.764778 H        1 UNL1     0.0236
     102 H         0.897521   3.442927   5.099326 H        1 UNL1     0.0236
     103 H         1.747082   3.196797   3.604948 H        1 UNL1     0.0236
     104 H         0.289366   3.538116   2.173983 H        1 UNL1     0.2098
     105 H         0.689539   1.20396   -1.04202 H        1 UNL1     0.0234
     106 H         1.344323   -0.45347   -0.918403 H        1 UNL1     0.0234
     107 H         0.0   -0.0   0.0 H        1 UNL1     0.0234
     108 H         3.315975   -1.724916   2.45482 H        1 UNL1     0.2098
     109 H         -0.242973   -1.431671   -0.282495 H        1 UNL1     0.0234
     110 H         -1.046001   -3.003482   0.029529 H        1 UNL1     0.0234
     111 H         -0.393027   -2.080316   1.337288 H        1 UNL1     0.0234
     112 H         4.121345   -2.426987   -4.648852 H        1 UNL1     0.0342
     113 H         3.849183   -3.597272   -3.309225 H        1 UNL1     0.0342
     114 H         2.552245   -3.226625   -4.44876 H        1 UNL1     0.0342
     115 H         5.542729   -1.807526   0.802625 H        1 UNL1     0.0234
     116 H         4.469773   -3.132044   1.266523 H        1 UNL1     0.0234
     117 H         5.13339   -2.967314   -0.372417 H        1 UNL1     0.0234
     118 H         -1.074536   -5.259792   3.68779 H        1 UNL1     0.0309
     119 H         -2.70104   -4.72277   4.211385 H        1 UNL1     0.0309
     120 H         -1.819421   -3.88937   2.950294 H        1 UNL1     0.0309
     121 H         4.153932   -3.796811   3.501249 H        1 UNL1     0.0524
     122 H         2.480619   -4.26683   3.826769 H        1 UNL1     0.0524
     123 H         3.543487   -5.367573   2.914399 H        1 UNL1     0.0524
@<TRIPOS>BOND
     1     1     2    1
     2     1    42    1
     3     2     3    2
     4     3     4    1
     5     4     5    2
     6     5     7    1
     7     6    75    1
     8     6    76    1
     9     6    77    1
    10     7     9   am
    11     9    10    1
    12    10    11    2
    13    10    43    1
    14    11    14    1
    15    11    15    1
    16    12    13   ar
    17    12    27   ar
    18    12    43    1
    19    13    14    1
    20    13    30   ar
    21    14    17    2
    22    15    16    1
    23    16    17    1
    24    16    18    1
    25    16    22    1
    26    18    19    1
    27    19    20    1
    28    20    21    1
    29    21    22    1
    30    23    24    1
    31    23    88    1
    32    23    89    1
    33    24    25    1
    34    24    26    1
    35    24    90    1
    36    25    91    1
    37    25    92    1
    38    25    93    1
    39    26    94    1
    40    26    95    1
    41    26    96    1
    42    27    28   ar
    43    28    29   ar
    44    29    30   ar
    45    29    31    1
    46    30    33    1
    47    31    32    1
    48    32    33    1
    49    32    35    1
    50    34    97    1
    51    34    98    1
    52    34    99    1
    53    35    61    1
    54    36    37    1
    55    36    60    1
    56    37    38    1
    57    38    39    1
    58    39    40    1
    59    40    41    1
    60    41    42    1
    61    45   100    1
    62    47   101    1
    63    47   102    1
    64    47   103    1
    65    48   104    1
    66    49   105    1
    67    49   106    1
    68    49   107    1
    69    50   108    1
    70    51    59    1
    71    52   109    1
    72    52   110    1
    73    52   111    1
    74    53    54    1
    75    54    55    2
    76    54    56    1
    77    56   112    1
    78    56   113    1
    79    56   114    1
    80    57   115    1
    81    57   116    1
    82    57   117    1
    83    58   118    1
    84    58   119    1
    85    58   120    1
    86    59   121    1
    87    59   122    1
    88    59   123    1
    89    60    61    2
    90     1    47    1
    91     1    62    1
    92     2    63    1
    93     3    64    1
    94     4    65    1
    95     5     6    1
    96     7     8    2
    97     9    78    1
    98    15    79    1
    99    18    80    1
   100    18    81    1
   101    19    82    1
   102    19    83    1
   103    20    23    1
   104    21    84    1
   105    21    85    1
   106    22    86    1
   107    22    87    1
   108    27    45    1
   109    28    34    1
   110    32    58    1
   111    33    46    2
   112    36    51    1
   113    36    66    1
   114    37    52    1
   115    37    67    1
   116    38    53    1
   117    38    68    1
   118    42    48    1
   119    42    72    1
   120    43    44    2
   121    60    73    1
   122    61    74    1
   123    39    69    1
   124    39    57    1
   125    40    70    1
   126    40    50    1
   127    41    71    1
   128    41    49    1
