@<TRIPOS>MOLECULE
*****
 123 128 0 0 0
SMALL
GASTEIGER

@<TRIPOS>ATOM
     1 C         -0.333781   1.921925   3.756014 C.3        1 UNL1     0.0009
     2 C         -1.858082   2.120953   4.79232 C.2        1 UNL1     -0.0787
     3 C         -2.931436   2.948305   5.30168 C.2        1 UNL1     -0.0649
     4 C         -4.256778   2.471455   6.241063 C.2        1 UNL1     -0.0542
     5 C         -5.564505   2.815828   6.663361 C.2        1 UNL1     0.0115
     6 C         -6.621103   3.954554   6.67841 C.3        1 UNL1     -0.0348
     7 C         -6.508966   1.672198   7.27744 C.2        1 UNL1     0.2441
     8 O         -6.709391   1.548244   8.477853 O.2        1 UNL1     -0.2702
     9 N         -7.295155   0.988133   6.333982 N.am        1 UNL1     -0.2772
     10 C         -6.604292   -0.085805   5.821451 C.2        1 UNL1     0.1049
     11 C         -5.766734   0.178044   4.834991 C.2        1 UNL1     0.0801
     12 C         -5.244466   -2.074206   6.495594 C.ar        1 UNL1     0.0753
     13 C         -4.264993   -1.625624   5.553248 C.ar        1 UNL1     0.0305
     14 C         -4.554284   -0.557827   4.598695 C.2        1 UNL1     0.0924
     15 N         -5.623311   1.293217   4.098549 N.pl3        1 UNL1     -0.3170
     16 C         -4.690436   1.004923   3.041722 C.3        1 UNL1     0.1275
     17 N         -3.81135   -0.086873   3.601109 N.2        1 UNL1     -0.2557
     18 C         -5.480807   0.369821   1.901695 C.3        1 UNL1     0.0016
     19 C         -6.606155   1.312444   1.505913 C.3        1 UNL1     0.0026
     20 N         -6.028264   2.585301   1.097371 N.3        1 UNL1     -0.3018
     21 C         -5.19838   3.244269   2.108026 C.3        1 UNL1     0.0026
     22 C         -4.071859   2.281563   2.487555 C.3        1 UNL1     0.0016
     23 C         -6.979426   3.445743   0.422409 C.3        1 UNL1     0.0012
     24 C         -7.323568   2.883574   -0.965859 C.3        1 UNL1     -0.0339
     25 C         -7.5796   4.009687   -1.980932 C.3        1 UNL1     -0.0615
     26 C         -6.224136   1.946888   -1.435594 C.3        1 UNL1     -0.0615
     27 C         -5.004072   -3.171284   7.319455 C.ar        1 UNL1     0.1347
     28 C         -3.842459   -3.920729   7.264316 C.ar        1 UNL1     0.0342
     29 C         -2.87282   -3.431111   6.363629 C.ar        1 UNL1     0.1435
     30 C         -3.085354   -2.311879   5.557793 C.ar        1 UNL1     0.0774
     31 O         -1.733535   -4.113255   6.115204 O.3        1 UNL1     -0.4436
     32 C         -1.263045   -3.589981   4.863926 C.3        1 UNL1     0.3143
     33 C         -1.88757   -2.214043   4.750013 C.2        1 UNL1     0.2504
     34 C         -3.617581   -5.248914   7.931739 C.3        1 UNL1     -0.0327
     35 O         0.151436   -3.397168   4.987703 O.2        1 UNL1     -0.4528
     36 C         1.576319   -3.879243   1.502678 C.3        1 UNL1     0.0854
     37 C         1.22152   -3.118783   0.16726 C.3        1 UNL1     0.0236
     38 C         2.471653   -2.450259   -0.582398 C.3        1 UNL1     0.1131
     39 C         3.464032   -1.518729   0.223645 C.3        1 UNL1     0.0200
     40 C         2.875314   -0.384669   1.295912 C.3        1 UNL1     0.0661
     41 C         1.65428   0.747896   0.973452 C.3        1 UNL1     0.0091
     42 C         0.385847   1.477745   2.079708 C.3        1 UNL1     0.0661
     43 C         -6.560008   -1.38752   6.504042 C.2        1 UNL1     0.2131
     44 O         -7.578132   -1.888914   6.945363 O.2        1 UNL1     -0.2851
     45 O         -5.991223   -3.514647   8.240907 O.3        1 UNL1     -0.5056
     46 O         -1.47727   -1.247904   4.146621 O.2        1 UNL1     -0.2836
     47 C         0.885088   2.578917   4.457941 C.3        1 UNL1     -0.0566
     48 O         0.632622   2.869915   1.632405 O.3        1 UNL1     -0.3909
     49 C         0.950413   0.355563   -0.306447 C.3        1 UNL1     -0.0577
     50 O         2.678116   -0.957362   2.572963 O.3        1 UNL1     -0.3910
     51 O         2.90112   -3.732541   1.961821 O.3        1 UNL1     -0.3753
     52 C         -0.171298   -2.413207   0.251943 C.3        1 UNL1     -0.0564
     53 O         2.177586   -2.046773   -1.99769 O.3        1 UNL1     -0.4608
     54 C         2.656263   -0.923652   -2.620101 C.2        1 UNL1     0.3042
     55 O         2.049984   0.124152   -2.840035 O.2        1 UNL1     -0.2512
     56 C         4.105012   -1.020807   -3.005329 C.3        1 UNL1     0.0332
     57 C         4.696715   -2.421758   0.696092 C.3        1 UNL1     -0.0567
     58 C         -1.853014   -4.498543   3.760305 C.3        1 UNL1     0.0210
     59 C         3.718328   -4.892922   1.815004 C.3        1 UNL1     0.0372
     60 C         0.686129   -3.573952   2.655726 C.2        1 UNL1     -0.0208
     61 C         0.980889   -3.312724   3.929939 C.2        1 UNL1     0.0882
     62 H         -0.313613   0.858692   4.024047 H        1 UNL1     0.0365
     63 H         -1.922918   1.132113   5.251079 H        1 UNL1     0.0576
     64 H         -3.066724   3.979665   4.968362 H        1 UNL1     0.0615
     65 H         -3.985901   1.469271   6.584189 H        1 UNL1     0.0622
     66 H         1.412203   -4.940391   1.267994 H        1 UNL1     0.0645
     67 H         0.949286   -3.924872   -0.536067 H        1 UNL1     0.0362
     68 H         3.049821   -3.356305   -0.819723 H        1 UNL1     0.0741
     69 H         4.021581   -0.913783   -0.478911 H        1 UNL1     0.0359
     70 H         3.773751   0.250965   1.413562 H        1 UNL1     0.0600
     71 H         2.269312   1.602601   0.629689 H        1 UNL1     0.0348
     72 H         1.170346   1.07919   2.739277 H        1 UNL1     0.0602
     73 H         -0.324932   -3.71179   2.36246 H        1 UNL1     0.0628
     74 H         1.984721   -3.101115   4.299779 H        1 UNL1     0.1022
     75 H         -6.155292   4.917327   6.999536 H        1 UNL1     0.0279
     76 H         -7.065108   4.217064   5.7208 H        1 UNL1     0.0279
     77 H         -7.386554   3.814198   7.45564 H        1 UNL1     0.0279
     78 H         -7.51583   1.608939   5.558108 H        1 UNL1     0.1553
     79 H         -6.325924   2.005776   4.024202 H        1 UNL1     0.1484
     80 H         -4.803809   0.178761   1.060306 H        1 UNL1     0.0317
     81 H         -5.88925   -0.601054   2.202074 H        1 UNL1     0.0317
     82 H         -7.328589   1.450085   2.323872 H        1 UNL1     0.0428
     83 H         -7.157961   0.839379   0.693036 H        1 UNL1     0.0428
     84 H         -4.71238   4.156961   1.749407 H        1 UNL1     0.0428
     85 H         -5.792312   3.579158   2.969658 H        1 UNL1     0.0428
     86 H         -3.413464   2.842927   3.124246 H        1 UNL1     0.0317
     87 H         -3.451886   2.065267   1.60895 H        1 UNL1     0.0317
     88 H         -7.897369   3.478034   1.023767 H        1 UNL1     0.0429
     89 H         -6.605251   4.475155   0.35115 H        1 UNL1     0.0429
     90 H         -8.228546   2.269144   -0.890327 H        1 UNL1     0.0308
     91 H         -6.809355   4.784227   -1.918388 H        1 UNL1     0.0233
     92 H         -7.607844   3.61334   -2.998636 H        1 UNL1     0.0233
     93 H         -8.544005   4.506312   -1.819311 H        1 UNL1     0.0233
     94 H         -6.249204   1.852147   -2.526572 H        1 UNL1     0.0233
     95 H         -5.246291   2.347779   -1.154405 H        1 UNL1     0.0233
     96 H         -6.3357   0.950214   -0.999519 H        1 UNL1     0.0233
     97 H         -3.367245   -6.026992   7.216787 H        1 UNL1     0.0280
     98 H         -2.784235   -5.217439   8.645741 H        1 UNL1     0.0280
     99 H         -4.532204   -5.552595   8.466845 H        1 UNL1     0.0280
     100 H         -6.312029   -2.796083   8.75702 H        1 UNL1     0.2922
     101 H         1.523179   1.806241   4.886274 H        1 UNL1     0.0236
     102 H         0.601955   3.330203   5.194411 H        1 UNL1     0.0236
     103 H         1.534196   3.114623   3.745291 H        1 UNL1     0.0236
     104 H         1.595437   2.970522   1.498853 H        1 UNL1     0.2098
     105 H         0.790448   1.176558   -1.000845 H        1 UNL1     0.0234
     106 H         1.389055   -0.497246   -0.824363 H        1 UNL1     0.0234
     107 H         0.0   -0.0   0.0 H        1 UNL1     0.0234
     108 H         1.873127   -0.553619   2.950791 H        1 UNL1     0.2098
     109 H         -0.989193   -3.126619   0.424579 H        1 UNL1     0.0234
     110 H         -0.208171   -1.623137   1.009685 H        1 UNL1     0.0234
     111 H         -0.420597   -1.896061   -0.684195 H        1 UNL1     0.0234
     112 H         4.42819   -0.087615   -3.476555 H        1 UNL1     0.0342
     113 H         4.738969   -1.269371   -2.15553 H        1 UNL1     0.0342
     114 H         4.209939   -1.825861   -3.745629 H        1 UNL1     0.0342
     115 H         4.537444   -3.483852   0.464192 H        1 UNL1     0.0234
     116 H         5.653825   -2.130186   0.259083 H        1 UNL1     0.0234
     117 H         4.820057   -2.459126   1.792144 H        1 UNL1     0.0234
     118 H         -1.077099   -5.111607   3.269271 H        1 UNL1     0.0309
     119 H         -2.650349   -5.154244   4.124331 H        1 UNL1     0.0309
     120 H         -2.285127   -3.926909   2.93168 H        1 UNL1     0.0309
     121 H         4.501227   -4.842639   2.571243 H        1 UNL1     0.0524
     122 H         3.154437   -5.825671   1.982463 H        1 UNL1     0.0524
     123 H         4.157686   -4.919997   0.821865 H        1 UNL1     0.0524
@<TRIPOS>BOND
     1     1     2    1
     2     1    42    1
     3     2     3    2
     4     3     4    1
     5     4     5    2
     6     5     7    1
     7     6    75    1
     8     6    76    1
     9     6    77    1
    10     7     9   am
    11     9    10    1
    12    10    11    2
    13    10    43    1
    14    11    14    1
    15    11    15    1
    16    12    13   ar
    17    12    27   ar
    18    12    43    1
    19    13    14    1
    20    13    30   ar
    21    14    17    2
    22    15    16    1
    23    16    17    1
    24    16    18    1
    25    16    22    1
    26    18    19    1
    27    19    20    1
    28    20    21    1
    29    21    22    1
    30    23    24    1
    31    23    88    1
    32    23    89    1
    33    24    25    1
    34    24    26    1
    35    24    90    1
    36    25    91    1
    37    25    92    1
    38    25    93    1
    39    26    94    1
    40    26    95    1
    41    26    96    1
    42    27    28   ar
    43    28    29   ar
    44    29    30   ar
    45    29    31    1
    46    30    33    1
    47    31    32    1
    48    32    33    1
    49    32    35    1
    50    34    97    1
    51    34    98    1
    52    34    99    1
    53    35    61    1
    54    36    37    1
    55    36    60    1
    56    37    38    1
    57    38    39    1
    58    39    40    1
    59    40    41    1
    60    41    42    1
    61    45   100    1
    62    47   101    1
    63    47   102    1
    64    47   103    1
    65    48   104    1
    66    49   105    1
    67    49   106    1
    68    49   107    1
    69    50   108    1
    70    51    59    1
    71    52   109    1
    72    52   110    1
    73    52   111    1
    74    53    54    1
    75    54    55    2
    76    54    56    1
    77    56   112    1
    78    56   113    1
    79    56   114    1
    80    57   115    1
    81    57   116    1
    82    57   117    1
    83    58   118    1
    84    58   119    1
    85    58   120    1
    86    59   121    1
    87    59   122    1
    88    59   123    1
    89    60    61    2
    90     1    47    1
    91     1    62    1
    92     2    63    1
    93     3    64    1
    94     4    65    1
    95     5     6    1
    96     7     8    2
    97     9    78    1
    98    15    79    1
    99    18    80    1
   100    18    81    1
   101    19    82    1
   102    19    83    1
   103    20    23    1
   104    21    84    1
   105    21    85    1
   106    22    86    1
   107    22    87    1
   108    27    45    1
   109    28    34    1
   110    32    58    1
   111    33    46    2
   112    36    51    1
   113    36    66    1
   114    37    52    1
   115    37    67    1
   116    38    53    1
   117    38    68    1
   118    42    48    1
   119    42    72    1
   120    43    44    2
   121    60    73    1
   122    61    74    1
   123    39    69    1
   124    39    57    1
   125    40    70    1
   126    40    50    1
   127    41    71    1
   128    41    49    1
