@<TRIPOS>MOLECULE
*****
 123 128 0 0 0
SMALL
GASTEIGER

@<TRIPOS>ATOM
     1 C         4.3568   2.767037   1.833322 C.3        1 UNL1     0.0009
     2 C         5.687091   3.989445   1.417289 C.2        1 UNL1     -0.0787
     3 C         7.059768   4.278772   1.059386 C.2        1 UNL1     -0.0649
     4 C         7.734036   5.775799   0.646311 C.2        1 UNL1     -0.0542
     5 C         8.815974   6.423309   0.000388 C.2        1 UNL1     0.0115
     6 C         10.215301   6.199561   -0.636122 C.3        1 UNL1     -0.0348
     7 C         8.65747   7.962914   -0.42562 C.2        1 UNL1     0.2441
     8 O         9.156026   8.88326   0.207572 O.2        1 UNL1     -0.2702
     9 N         8.1312   8.166585   -1.713141 N.am        1 UNL1     -0.2772
     10 C         6.756508   8.206719   -1.66919 C.2        1 UNL1     0.1049
     11 C         6.139709   7.038914   -1.673043 C.2        1 UNL1     0.0801
     12 C         4.840689   9.25801   -0.451914 C.ar        1 UNL1     0.0753
     13 C         4.313817   7.935938   -0.299797 C.ar        1 UNL1     0.0305
     14 C         4.881253   6.798519   -1.020453 C.2        1 UNL1     0.0924
     15 N         6.620338   5.808984   -1.92363 N.pl3        1 UNL1     -0.3170
     16 C         5.504344   4.901921   -1.968909 C.3        1 UNL1     0.1275
     17 N         4.465215   5.536527   -1.077163 N.2        1 UNL1     -0.2557
     18 C         4.936627   4.953799   -3.384079 C.3        1 UNL1     0.0016
     19 C         6.050101   4.628752   -4.366988 C.3        1 UNL1     0.0026
     20 N         6.572882   3.304471   -4.060381 N.3        1 UNL1     -0.3018
     21 C         7.086104   3.138541   -2.69897 C.3        1 UNL1     0.0026
     22 C         5.949957   3.46557   -1.728343 C.3        1 UNL1     0.0016
     23 C         7.422501   2.776815   -5.109366 C.3        1 UNL1     0.0012
     24 C         6.58865   2.422473   -6.350692 C.3        1 UNL1     -0.0339
     25 C         6.695117   3.512697   -7.429642 C.3        1 UNL1     -0.0615
     26 C         7.003973   1.063338   -6.886451 C.3        1 UNL1     -0.0615
     27 C         4.221001   10.354732   0.14248 C.ar        1 UNL1     0.1347
     28 C         3.051855   10.259452   0.876012 C.ar        1 UNL1     0.0342
     29 C         2.578456   8.942024   1.053331 C.ar        1 UNL1     0.1435
     30 C         3.20884   7.829776   0.4941 C.ar        1 UNL1     0.0774
     31 O         1.392207   8.693766   1.650145 O.3        1 UNL1     -0.4436
     32 C         1.045822   7.365466   1.230015 C.3        1 UNL1     0.3143
     33 C         2.361091   6.712833   0.855382 C.2        1 UNL1     0.2504
     34 C         2.198152   11.411443   1.327907 C.3        1 UNL1     -0.0327
     35 O         0.548245   6.670991   2.380395 O.2        1 UNL1     -0.4528
     36 C         -1.959613   4.143037   1.06579 C.3        1 UNL1     0.0854
     37 C         -1.75254   2.991762   0.007863 C.3        1 UNL1     0.0236
     38 C         -2.164629   1.526851   0.51379 C.3        1 UNL1     0.1131
     39 C         -1.606829   0.98636   1.891831 C.3        1 UNL1     0.0200
     40 C         -0.005575   1.21104   2.301639 C.3        1 UNL1     0.0661
     41 C         1.330842   0.855889   1.319057 C.3        1 UNL1     0.0091
     42 C         2.970906   1.669345   1.201237 C.3        1 UNL1     0.0661
     43 C         6.018263   9.434479   -1.337599 C.2        1 UNL1     0.2131
     44 O         6.317122   10.494623   -1.856748 O.2        1 UNL1     -0.2851
     45 O         4.823697   11.600864   -0.016739 O.3        1 UNL1     -0.5056
     46 O         2.650933   5.537441   0.872681 O.2        1 UNL1     -0.2836
     47 C         4.549714   2.23069   3.277309 C.3        1 UNL1     -0.0566
     48 O         3.732192   0.397718   1.251487 O.3        1 UNL1     -0.3909
     49 C         0.848968   0.627383   -0.096244 C.3        1 UNL1     -0.0577
     50 O         0.178999   2.46103   2.935028 O.3        1 UNL1     -0.3910
     51 O         -2.310121   3.728413   2.366814 O.3        1 UNL1     -0.3753
     52 C         -0.49101   3.239455   -0.882159 C.3        1 UNL1     -0.0564
     53 O         -2.294033   0.523085   -0.594377 O.3        1 UNL1     -0.4608
     54 C         -2.2237   -0.837524   -0.446981 C.2        1 UNL1     0.3042
     55 O         -1.333798   -1.587092   -0.84706 O.2        1 UNL1     -0.2512
     56 C         -3.359665   -1.415846   0.347903 C.3        1 UNL1     0.0332
     57 C         -2.711191   1.28498   3.009591 C.3        1 UNL1     -0.0567
     58 C         0.18482   7.520591   -0.045188 C.3        1 UNL1     0.0210
     59 C         -3.050802   4.686037   3.121939 C.3        1 UNL1     0.0372
     60 C         -0.811936   5.079868   1.20843 C.2        1 UNL1     -0.0208
     61 C         -0.231486   5.575604   2.302079 C.2        1 UNL1     0.0882
     62 H         3.642333   3.596345   1.900369 H        1 UNL1     0.0365
     63 H         5.150131   4.930025   1.556759 H        1 UNL1     0.0576
     64 H         7.779567   3.481704   0.860192 H        1 UNL1     0.0615
     65 H         6.973889   6.498262   0.955677 H        1 UNL1     0.0622
     66 H         -2.789008   4.741642   0.663521 H        1 UNL1     0.0645
     67 H         -2.526393   3.186268   -0.754947 H        1 UNL1     0.0362
     68 H         -3.241677   1.684748   0.676759 H        1 UNL1     0.0741
     69 H         -1.707246   -0.090678   1.90955 H        1 UNL1     0.0359
     70 H         0.087846   0.470404   3.118824 H        1 UNL1     0.0600
     71 H         1.541501   -0.18105   1.64668 H        1 UNL1     0.0348
     72 H         2.551066   1.972438   2.171384 H        1 UNL1     0.0602
     73 H         -0.540714   5.448336   0.250349 H        1 UNL1     0.0628
     74 H         -0.411029   5.211736   3.314306 H        1 UNL1     0.1022
     75 H         10.490677   5.117727   -0.607202 H        1 UNL1     0.0279
     76 H         10.311128   6.437507   -1.693131 H        1 UNL1     0.0279
     77 H         11.02792   6.64601   -0.044485 H        1 UNL1     0.0279
     78 H         8.395868   7.391407   -2.317398 H        1 UNL1     0.1553
     79 H         7.48184   5.635688   -2.408105 H        1 UNL1     0.1484
     80 H         4.109969   4.237566   -3.464152 H        1 UNL1     0.0317
     81 H         4.517316   5.942011   -3.601488 H        1 UNL1     0.0317
     82 H         6.84852   5.384948   -4.342346 H        1 UNL1     0.0428
     83 H         5.624015   4.6731   -5.369751 H        1 UNL1     0.0428
     84 H         7.398618   2.115021   -2.469725 H        1 UNL1     0.0428
     85 H         7.990466   3.738458   -2.527085 H        1 UNL1     0.0428
     86 H         6.318615   3.206422   -0.753191 H        1 UNL1     0.0317
     87 H         5.116687   2.768224   -1.878225 H        1 UNL1     0.0317
     88 H         8.147122   3.554039   -5.385307 H        1 UNL1     0.0429
     89 H         7.998016   1.910552   -4.758446 H        1 UNL1     0.0429
     90 H         5.536443   2.32089   -6.059566 H        1 UNL1     0.0308
     91 H         7.735554   3.681776   -7.722909 H        1 UNL1     0.0233
     92 H         6.113264   3.239908   -8.313181 H        1 UNL1     0.0233
     93 H         6.299821   4.477357   -7.089041 H        1 UNL1     0.0233
     94 H         6.5699   0.899778   -7.878754 H        1 UNL1     0.0233
     95 H         8.092318   1.016305   -6.982656 H        1 UNL1     0.0233
     96 H         6.672689   0.256245   -6.227042 H        1 UNL1     0.0233
     97 H         1.305576   11.077499   1.848503 H        1 UNL1     0.0280
     98 H         2.727655   12.068376   2.030275 H        1 UNL1     0.0280
     99 H         1.886203   12.005063   0.453037 H        1 UNL1     0.0280
     100 H         4.255489   12.270168   -0.355552 H        1 UNL1     0.2922
     101 H         3.732597   1.555707   3.531032 H        1 UNL1     0.0236
     102 H         4.670638   3.022311   4.016022 H        1 UNL1     0.0236
     103 H         5.460335   1.615962   3.372549 H        1 UNL1     0.0236
     104 H         3.979773   0.238795   2.183377 H        1 UNL1     0.2098
     105 H         0.538308   1.53015   -0.61616 H        1 UNL1     0.0234
     106 H         1.528135   0.046748   -0.720362 H        1 UNL1     0.0234
     107 H         0.0   0.0   0.0 H        1 UNL1     0.0234
     108 H         -0.016787   3.15286   2.274114 H        1 UNL1     0.2098
     109 H         0.429623   3.315522   -0.286877 H        1 UNL1     0.0234
     110 H         -0.360521   2.483291   -1.663781 H        1 UNL1     0.0234
     111 H         -0.565757   4.184724   -1.436077 H        1 UNL1     0.0234
     112 H         -3.232375   -2.498247   0.44564 H        1 UNL1     0.0342
     113 H         -3.457969   -0.944245   1.324516 H        1 UNL1     0.0342
     114 H         -4.292027   -1.234912   -0.20448 H        1 UNL1     0.0342
     115 H         -3.673262   0.811514   2.769934 H        1 UNL1     0.0234
     116 H         -2.426579   0.96094   4.012608 H        1 UNL1     0.0234
     117 H         -3.004578   2.347409   3.065365 H        1 UNL1     0.0234
     118 H         -0.874278   7.723463   0.191793 H        1 UNL1     0.0309
     119 H         0.555454   8.29696   -0.722008 H        1 UNL1     0.0309
     120 H         0.13938   6.599403   -0.636335 H        1 UNL1     0.0309
     121 H         -2.407946   5.552052   3.277213 H        1 UNL1     0.0524
     122 H         -3.951819   5.032731   2.589013 H        1 UNL1     0.0524
     123 H         -3.347275   4.263131   4.077632 H        1 UNL1     0.0524
@<TRIPOS>BOND
     1     1     2    1
     2     1    42    1
     3     2     3    2
     4     3     4    1
     5     4     5    2
     6     5     7    1
     7     6    75    1
     8     6    76    1
     9     6    77    1
    10     7     9   am
    11     9    10    1
    12    10    11    2
    13    10    43    1
    14    11    14    1
    15    11    15    1
    16    12    13   ar
    17    12    27   ar
    18    12    43    1
    19    13    14    1
    20    13    30   ar
    21    14    17    2
    22    15    16    1
    23    16    17    1
    24    16    18    1
    25    16    22    1
    26    18    19    1
    27    19    20    1
    28    20    21    1
    29    21    22    1
    30    23    24    1
    31    23    88    1
    32    23    89    1
    33    24    25    1
    34    24    26    1
    35    24    90    1
    36    25    91    1
    37    25    92    1
    38    25    93    1
    39    26    94    1
    40    26    95    1
    41    26    96    1
    42    27    28   ar
    43    28    29   ar
    44    29    30   ar
    45    29    31    1
    46    30    33    1
    47    31    32    1
    48    32    33    1
    49    32    35    1
    50    34    97    1
    51    34    98    1
    52    34    99    1
    53    35    61    1
    54    36    37    1
    55    36    60    1
    56    37    38    1
    57    38    39    1
    58    39    40    1
    59    40    41    1
    60    41    42    1
    61    45   100    1
    62    47   101    1
    63    47   102    1
    64    47   103    1
    65    48   104    1
    66    49   105    1
    67    49   106    1
    68    49   107    1
    69    50   108    1
    70    51    59    1
    71    52   109    1
    72    52   110    1
    73    52   111    1
    74    53    54    1
    75    54    55    2
    76    54    56    1
    77    56   112    1
    78    56   113    1
    79    56   114    1
    80    57   115    1
    81    57   116    1
    82    57   117    1
    83    58   118    1
    84    58   119    1
    85    58   120    1
    86    59   121    1
    87    59   122    1
    88    59   123    1
    89    60    61    2
    90     1    47    1
    91     1    62    1
    92     2    63    1
    93     3    64    1
    94     4    65    1
    95     5     6    1
    96     7     8    2
    97     9    78    1
    98    15    79    1
    99    18    80    1
   100    18    81    1
   101    19    82    1
   102    19    83    1
   103    20    23    1
   104    21    84    1
   105    21    85    1
   106    22    86    1
   107    22    87    1
   108    27    45    1
   109    28    34    1
   110    32    58    1
   111    33    46    2
   112    36    51    1
   113    36    66    1
   114    37    52    1
   115    37    67    1
   116    38    53    1
   117    38    68    1
   118    42    48    1
   119    42    72    1
   120    43    44    2
   121    60    73    1
   122    61    74    1
   123    39    69    1
   124    39    57    1
   125    40    70    1
   126    40    50    1
   127    41    71    1
   128    41    49    1
