@<TRIPOS>MOLECULE
*****
 123 128 0 0 0
SMALL
GASTEIGER

@<TRIPOS>ATOM
     1 C         4.617093   -0.162282   2.777646 C.3        1 UNL1     0.0009
     2 C         5.414992   -0.520773   4.412234 C.2        1 UNL1     -0.0787
     3 C         5.883269   -0.072144   5.706643 C.2        1 UNL1     -0.0649
     4 C         6.50031   -1.011475   6.972848 C.2        1 UNL1     -0.0542
     5 C         6.76185   -1.056391   8.364487 C.2        1 UNL1     0.0115
     6 C         6.807212   -0.204393   9.662703 C.3        1 UNL1     -0.0348
     7 C         7.006857   -2.480673   9.063328 C.2        1 UNL1     0.2441
     8 O         8.119204   -2.892316   9.362928 O.2        1 UNL1     -0.2702
     9 N         5.844701   -3.10823   9.544697 N.am        1 UNL1     -0.2772
     10 C         5.268953   -3.87479   8.55767 C.2        1 UNL1     0.1049
     11 C         4.490843   -3.235215   7.703439 C.2        1 UNL1     0.0801
     12 C         5.792591   -5.614109   6.837813 C.ar        1 UNL1     0.0753
     13 C         5.112417   -4.776602   5.897307 C.ar        1 UNL1     0.0305
     14 C         4.326111   -3.623066   6.328735 C.2        1 UNL1     0.0924
     15 N         3.993908   -1.98744   7.754811 N.pl3        1 UNL1     -0.3170
     16 C         3.065863   -1.838871   6.665355 C.3        1 UNL1     0.1275
     17 N         3.558379   -2.804361   5.615126 N.2        1 UNL1     -0.2557
     18 C         1.72067   -2.379766   7.140317 C.3        1 UNL1     0.0016
     19 C         1.321557   -1.644288   8.409715 C.3        1 UNL1     0.0026
     20 N         1.240269   -0.219553   8.118934 N.3        1 UNL1     -0.3018
     21 C         2.470287   0.379633   7.597017 C.3        1 UNL1     0.0026
     22 C         2.850279   -0.371356   6.319709 C.3        1 UNL1     0.0016
     23 C         0.583388   0.533661   9.16861 C.3        1 UNL1     0.0012
     24 C         1.596452   0.952743   10.245563 C.3        1 UNL1     -0.0339
     25 C         0.95027   0.993215   11.640148 C.3        1 UNL1     -0.0615
     26 C         2.801637   0.028976   10.214493 C.3        1 UNL1     -0.0615
     27 C         6.438986   -6.779049   6.431356 C.ar        1 UNL1     0.1347
     28 C         6.439729   -7.228622   5.122947 C.ar        1 UNL1     0.0342
     29 C         5.805647   -6.362799   4.20673 C.ar        1 UNL1     0.1435
     30 C         5.185101   -5.174407   4.593856 C.ar        1 UNL1     0.0774
     31 O         5.626856   -6.712869   2.914255 O.3        1 UNL1     -0.4436
     32 C         4.578294   -5.850967   2.446799 C.3        1 UNL1     0.3143
     33 C         4.609051   -4.651668   3.372515 C.2        1 UNL1     0.2504
     34 C         6.89115   -8.584757   4.656882 C.3        1 UNL1     -0.0327
     35 O         4.958493   -5.384161   1.146494 O.2        1 UNL1     -0.4528
     36 C         1.716289   -4.807853   -0.741381 C.3        1 UNL1     0.0854
     37 C         0.495632   -3.882421   -0.365756 C.3        1 UNL1     0.0236
     38 C         0.084481   -2.816217   -1.490882 C.3        1 UNL1     0.1131
     39 C         1.189506   -1.879124   -2.125742 C.3        1 UNL1     0.0200
     40 C         2.335876   -1.149384   -1.158398 C.3        1 UNL1     0.0661
     41 C         2.025998   -0.268939   0.258077 C.3        1 UNL1     0.0091
     42 C         3.025835   -0.08002   1.784523 C.3        1 UNL1     0.0661
     43 C         5.710876   -5.248258   8.273687 C.2        1 UNL1     0.2131
     44 O         5.888895   -6.040331   9.181248 O.2        1 UNL1     -0.2851
     45 O         7.116085   -7.513564   7.402677 O.3        1 UNL1     -0.5056
     46 O         4.257902   -3.515421   3.145598 O.2        1 UNL1     -0.2836
     47 C         5.609047   0.58414   1.845518 C.3        1 UNL1     -0.0566
     48 O         2.874875   1.394272   1.83735 O.3        1 UNL1     -0.3909
     49 C         0.601326   -0.530387   0.693336 C.3        1 UNL1     -0.0577
     50 O         3.444504   -2.004121   -0.963221 O.3        1 UNL1     -0.3910
     51 O         2.399852   -4.47435   -1.928373 O.3        1 UNL1     -0.3753
     52 C         0.478932   -3.531282   1.157849 C.3        1 UNL1     -0.0564
     53 O         -1.266652   -2.201276   -1.2704 O.3        1 UNL1     -0.4608
     54 C         -2.373651   -2.413615   -2.049757 C.2        1 UNL1     0.3042
     55 O         -2.844258   -1.659125   -2.900118 O.2        1 UNL1     -0.2512
     56 C         -3.009922   -3.757753   -1.837237 C.3        1 UNL1     0.0332
     57 C         1.687198   -2.569372   -3.480007 C.3        1 UNL1     -0.0567
     58 C         3.252556   -6.616431   2.665915 C.3        1 UNL1     0.0210
     59 C         3.196018   -3.292904   -1.849814 C.3        1 UNL1     0.0372
     60 C         2.747611   -4.950916   0.322136 C.2        1 UNL1     -0.0208
     61 C         4.078362   -4.902578   0.247919 C.2        1 UNL1     0.0882
     62 H         4.694261   -1.22739   2.528045 H        1 UNL1     0.0365
     63 H         5.676892   -1.573179   4.284488 H        1 UNL1     0.0576
     64 H         5.718687   0.951031   6.051801 H        1 UNL1     0.0615
     65 H         6.701214   -1.979279   6.505435 H        1 UNL1     0.0622
     66 H         1.276   -5.806618   -0.870455 H        1 UNL1     0.0645
     67 H         -0.372476   -4.564105   -0.381689 H        1 UNL1     0.0362
     68 H         -0.212499   -3.504544   -2.296816 H        1 UNL1     0.0741
     69 H         0.702233   -1.034495   -2.59433 H        1 UNL1     0.0359
     70 H         2.705265   -0.371718   -1.853991 H        1 UNL1     0.0600
     71 H         1.940255   0.751733   -0.163627 H        1 UNL1     0.0348
     72 H         3.722107   -0.426014   1.006828 H        1 UNL1     0.0602
     73 H         2.276902   -5.242   1.2282 H        1 UNL1     0.0628
     74 H         4.635237   -4.558663   -0.624348 H        1 UNL1     0.1022
     75 H         6.672707   0.878569   9.425772 H        1 UNL1     0.0279
     76 H         6.018227   -0.384976   10.389312 H        1 UNL1     0.0279
     77 H         7.800582   -0.201274   10.134832 H        1 UNL1     0.0279
     78 H         5.164562   -2.403078   9.82083 H        1 UNL1     0.1553
     79 H         3.934295   -1.445922   8.597507 H        1 UNL1     0.1484
     80 H         0.97805   -2.23915   6.345642 H        1 UNL1     0.0317
     81 H         1.776927   -3.457089   7.329688 H        1 UNL1     0.0317
     82 H         2.024784   -1.840879   9.232353 H        1 UNL1     0.0428
     83 H         0.360723   -2.046674   8.732102 H        1 UNL1     0.0428
     84 H         2.359651   1.430524   7.312061 H        1 UNL1     0.0428
     85 H         3.271073   0.390072   8.349313 H        1 UNL1     0.0428
     86 H         3.672482   0.175135   5.896249 H        1 UNL1     0.0317
     87 H         2.057963   -0.259505   5.569494 H        1 UNL1     0.0317
     88 H         0.153924   1.439639   8.72133 H        1 UNL1     0.0429
     89 H         -0.247838   -0.033982   9.606353 H        1 UNL1     0.0429
     90 H         1.97926   1.952584   10.008944 H        1 UNL1     0.0308
     91 H         0.34644   0.099684   11.824795 H        1 UNL1     0.0233
     92 H         1.713571   1.077134   12.417283 H        1 UNL1     0.0233
     93 H         0.287161   1.857339   11.768255 H        1 UNL1     0.0233
     94 H         2.744251   -0.637717   9.347277 H        1 UNL1     0.0233
     95 H         3.72026   0.616041   10.12819 H        1 UNL1     0.0233
     96 H         2.858032   -0.583942   11.118439 H        1 UNL1     0.0233
     97 H         7.52306   -9.077884   5.389512 H        1 UNL1     0.0280
     98 H         6.046931   -9.264461   4.482087 H        1 UNL1     0.0280
     99 H         7.463516   -8.481529   3.720487 H        1 UNL1     0.0280
     100 H         7.988688   -7.770632   7.161634 H        1 UNL1     0.2922
     101 H         5.705912   1.621049   2.166601 H        1 UNL1     0.0236
     102 H         5.348008   0.505306   0.790707 H        1 UNL1     0.0236
     103 H         6.630273   0.173486   1.913733 H        1 UNL1     0.0236
     104 H         3.266973   1.760373   1.020527 H        1 UNL1     0.2098
     105 H         0.305781   -1.575973   0.65848 H        1 UNL1     0.0234
     106 H         0.331388   -0.093359   1.65462 H        1 UNL1     0.0234
     107 H         0.0   0.0   0.0 H        1 UNL1     0.0234
     108 H         4.236834   -1.528155   -1.278558 H        1 UNL1     0.2098
     109 H         1.392184   -3.008219   1.474215 H        1 UNL1     0.0234
     110 H         -0.399138   -2.948077   1.455519 H        1 UNL1     0.0234
     111 H         0.422546   -4.434004   1.780634 H        1 UNL1     0.0234
     112 H         -3.871775   -3.870799   -2.5019 H        1 UNL1     0.0342
     113 H         -2.30095   -4.572802   -1.974701 H        1 UNL1     0.0342
     114 H         -3.374622   -3.80487   -0.801893 H        1 UNL1     0.0342
     115 H         1.903178   -3.637341   -3.338643 H        1 UNL1     0.0234
     116 H         0.980194   -2.484087   -4.307607 H        1 UNL1     0.0234
     117 H         2.666255   -2.19832   -3.828876 H        1 UNL1     0.0234
     118 H         3.153631   -6.986265   3.701503 H        1 UNL1     0.0309
     119 H         2.367632   -6.024783   2.410837 H        1 UNL1     0.0309
     120 H         3.190256   -7.529931   2.064464 H        1 UNL1     0.0309
     121 H         3.284725   -2.887518   -2.857361 H        1 UNL1     0.0524
     122 H         2.731513   -2.516537   -1.219318 H        1 UNL1     0.0524
     123 H         4.179338   -3.528062   -1.452477 H        1 UNL1     0.0524
@<TRIPOS>BOND
     1     1     2    1
     2     1    42    1
     3     2     3    2
     4     3     4    1
     5     4     5    2
     6     5     7    1
     7     6    75    1
     8     6    76    1
     9     6    77    1
    10     7     9   am
    11     9    10    1
    12    10    11    2
    13    10    43    1
    14    11    14    1
    15    11    15    1
    16    12    13   ar
    17    12    27   ar
    18    12    43    1
    19    13    14    1
    20    13    30   ar
    21    14    17    2
    22    15    16    1
    23    16    17    1
    24    16    18    1
    25    16    22    1
    26    18    19    1
    27    19    20    1
    28    20    21    1
    29    21    22    1
    30    23    24    1
    31    23    88    1
    32    23    89    1
    33    24    25    1
    34    24    26    1
    35    24    90    1
    36    25    91    1
    37    25    92    1
    38    25    93    1
    39    26    94    1
    40    26    95    1
    41    26    96    1
    42    27    28   ar
    43    28    29   ar
    44    29    30   ar
    45    29    31    1
    46    30    33    1
    47    31    32    1
    48    32    33    1
    49    32    35    1
    50    34    97    1
    51    34    98    1
    52    34    99    1
    53    35    61    1
    54    36    37    1
    55    36    60    1
    56    37    38    1
    57    38    39    1
    58    39    40    1
    59    40    41    1
    60    41    42    1
    61    45   100    1
    62    47   101    1
    63    47   102    1
    64    47   103    1
    65    48   104    1
    66    49   105    1
    67    49   106    1
    68    49   107    1
    69    50   108    1
    70    51    59    1
    71    52   109    1
    72    52   110    1
    73    52   111    1
    74    53    54    1
    75    54    55    2
    76    54    56    1
    77    56   112    1
    78    56   113    1
    79    56   114    1
    80    57   115    1
    81    57   116    1
    82    57   117    1
    83    58   118    1
    84    58   119    1
    85    58   120    1
    86    59   121    1
    87    59   122    1
    88    59   123    1
    89    60    61    2
    90     1    47    1
    91     1    62    1
    92     2    63    1
    93     3    64    1
    94     4    65    1
    95     5     6    1
    96     7     8    2
    97     9    78    1
    98    15    79    1
    99    18    80    1
   100    18    81    1
   101    19    82    1
   102    19    83    1
   103    20    23    1
   104    21    84    1
   105    21    85    1
   106    22    86    1
   107    22    87    1
   108    27    45    1
   109    28    34    1
   110    32    58    1
   111    33    46    2
   112    36    51    1
   113    36    66    1
   114    37    52    1
   115    37    67    1
   116    38    53    1
   117    38    68    1
   118    42    48    1
   119    42    72    1
   120    43    44    2
   121    60    73    1
   122    61    74    1
   123    39    69    1
   124    39    57    1
   125    40    70    1
   126    40    50    1
   127    41    71    1
   128    41    49    1
