@<TRIPOS>MOLECULE
*****
 123 128 0 0 0
SMALL
GASTEIGER

@<TRIPOS>ATOM
     1 C         -3.996035   -2.514997   1.919013 C.3        1 UNL1     0.0009
     2 C         -5.039096   -2.685322   3.442183 C.2        1 UNL1     -0.0787
     3 C         -5.2586   -3.248636   4.757684 C.2        1 UNL1     -0.0649
     4 C         -6.504861   -2.893243   5.847127 C.2        1 UNL1     -0.0542
     5 C         -6.912628   -2.947908   7.202788 C.2        1 UNL1     0.0115
     6 C         -6.553645   -3.522397   8.600792 C.3        1 UNL1     -0.0348
     7 C         -8.131213   -2.021056   7.685471 C.2        1 UNL1     0.2441
     8 O         -9.263147   -2.449488   7.86351 O.2        1 UNL1     -0.2702
     9 N         -7.756249   -0.744908   8.140442 N.am        1 UNL1     -0.2772
     10 C         -7.709556   0.144332   7.091445 C.2        1 UNL1     0.1049
     11 C         -6.598523   0.144315   6.377422 C.2        1 UNL1     0.0801
     12 C         -9.020026   0.960771   5.123342 C.ar        1 UNL1     0.0753
     13 C         -7.838253   0.743615   4.345612 C.ar        1 UNL1     0.0305
     14 C         -6.551447   0.453062   4.973914 C.2        1 UNL1     0.0924
     15 N         -5.411565   -0.434964   6.626609 N.pl3        1 UNL1     -0.3170
     16 C         -4.48463   0.012295   5.621123 C.3        1 UNL1     0.1275
     17 N         -5.347928   0.323259   4.422898 N.2        1 UNL1     -0.2557
     18 C         -3.916563   1.347756   6.091809 C.3        1 UNL1     0.0016
     19 C         -3.303855   1.156936   7.470129 C.3        1 UNL1     0.0026
     20 N         -2.259864   0.145332   7.381974 N.3        1 UNL1     -0.3018
     21 C         -2.698209   -1.158308   6.879237 C.3        1 UNL1     0.0026
     22 C         -3.306078   -0.943687   5.492036 C.3        1 UNL1     0.0016
     23 C         -1.416354   0.101329   8.559767 C.3        1 UNL1     0.0012
     24 C         -0.292875   -0.931632   8.379369 C.3        1 UNL1     -0.0339
     25 C         0.258972   -0.917471   6.944335 C.3        1 UNL1     -0.0615
     26 C         0.803867   -0.692246   9.402419 C.3        1 UNL1     -0.0615
     27 C         -10.21473   1.355675   4.525971 C.ar        1 UNL1     0.1347
     28 C         -10.33926   1.602431   3.17037 C.ar        1 UNL1     0.0342
     29 C         -9.175865   1.334908   2.417969 C.ar        1 UNL1     0.1435
     30 C         -7.982052   0.904086   2.99799 C.ar        1 UNL1     0.0774
     31 O         -9.104326   1.630592   1.10174 O.3        1 UNL1     -0.4436
     32 C         -7.698206   1.674132   0.815729 C.3        1 UNL1     0.3143
     33 C         -7.04838   0.830308   1.893645 C.2        1 UNL1     0.2504
     34 C         -11.50936   2.265673   2.498749 C.3        1 UNL1     -0.0327
     35 O         -7.495076   0.991455   -0.427631 O.2        1 UNL1     -0.4528
     36 C         -4.47434   2.63415   -2.03536 C.3        1 UNL1     0.0854
     37 C         -3.01171   2.800787   -1.46926 C.3        1 UNL1     0.0236
     38 C         -1.851626   2.222195   -2.413283 C.3        1 UNL1     0.1131
     39 C         -1.958683   0.747134   -2.974534 C.3        1 UNL1     0.0200
     40 C         -2.447253   -0.501172   -1.981827 C.3        1 UNL1     0.0661
     41 C         -1.823639   -0.84943   -0.443181 C.3        1 UNL1     0.0091
     42 C         -2.637706   -1.565481   1.036673 C.3        1 UNL1     0.0661
     43 C         -8.908427   0.838335   6.598067 C.2        1 UNL1     0.2131
     44 O         -9.685997   1.358685   7.377399 O.2        1 UNL1     -0.2851
     45 O         -11.330003   1.501118   5.348438 O.3        1 UNL1     -0.5056
     46 O         -6.00567   0.216984   1.844218 O.2        1 UNL1     -0.2836
     47 C         -4.106768   -3.792501   1.043968 C.3        1 UNL1     -0.0566
     48 O         -1.555325   -2.544636   1.299017 O.3        1 UNL1     -0.3909
     49 C         -1.006342   0.331575   0.030895 C.3        1 UNL1     -0.0577
     50 O         -3.856557   -0.607854   -1.967473 O.3        1 UNL1     -0.3910
     51 O         -4.598087   1.852117   -3.201783 O.3        1 UNL1     -0.3753
     52 C         -2.969425   2.650912   0.0866 C.3        1 UNL1     -0.0564
     53 O         -0.478304   2.695319   -2.035833 O.3        1 UNL1     -0.4608
     54 C         0.529202   2.994573   -2.915213 C.2        1 UNL1     0.3042
     55 O         1.29761   3.954534   -2.872047 O.2        1 UNL1     -0.2512
     56 C         0.703273   1.9713   -4.00118 C.3        1 UNL1     0.0332
     57 C         -2.602638   0.832785   -4.436095 C.3        1 UNL1     -0.0567
     58 C         -7.259386   3.145332   1.00157 C.3        1 UNL1     0.0210
     59 C         -3.414667   1.151584   -3.582094 C.3        1 UNL1     0.0372
     60 C         -5.470193   2.111526   -1.060526 C.2        1 UNL1     -0.0208
     61 C         -6.407871   1.17363   -1.201442 C.2        1 UNL1     0.0882
     62 H         -4.726354   -1.799568   1.522141 H        1 UNL1     0.0365
     63 H         -5.913215   -2.096072   3.157279 H        1 UNL1     0.0576
     64 H         -4.504488   -3.86817   5.248196 H        1 UNL1     0.0615
     65 H         -7.232679   -2.346728   5.241252 H        1 UNL1     0.0622
     66 H         -4.795766   3.657499   -2.275127 H        1 UNL1     0.0645
     67 H         -2.822865   3.886705   -1.529919 H        1 UNL1     0.0362
     68 H         -1.982365   2.877405   -3.288 H        1 UNL1     0.0741
     69 H         -0.97707   0.424709   -3.295293 H        1 UNL1     0.0359
     70 H         -2.110465   -1.366648   -2.583978 H        1 UNL1     0.0600
     71 H         -1.027047   -1.569185   -0.715852 H        1 UNL1     0.0348
     72 H         -3.276237   -1.830222   0.181392 H        1 UNL1     0.0602
     73 H         -5.43756   2.700878   -0.178003 H        1 UNL1     0.0628
     74 H         -6.473383   0.489455   -2.048112 H        1 UNL1     0.1022
     75 H         -5.688163   -4.224077   8.525822 H        1 UNL1     0.0279
     76 H         -6.211779   -2.807513   9.345867 H        1 UNL1     0.0279
     77 H         -7.335134   -4.184169   9.002082 H        1 UNL1     0.0279
     78 H         -6.824439   -0.787183   8.547898 H        1 UNL1     0.1553
     79 H         -5.120633   -0.739324   7.537464 H        1 UNL1     0.1484
     80 H         -3.170684   1.694583   5.366453 H        1 UNL1     0.0317
     81 H         -4.698084   2.114256   6.128588 H        1 UNL1     0.0317
     82 H         -4.061604   0.879632   8.217679 H        1 UNL1     0.0428
     83 H         -2.906497   2.12154   7.787454 H        1 UNL1     0.0428
     84 H         -1.881459   -1.874781   6.747334 H        1 UNL1     0.0428
     85 H         -3.381025   -1.658172   7.580104 H        1 UNL1     0.0428
     86 H         -3.492292   -1.927215   5.102184 H        1 UNL1     0.0317
     87 H         -2.548628   -0.539347   4.809485 H        1 UNL1     0.0317
     88 H         -0.962257   1.092109   8.69185 H        1 UNL1     0.0429
     89 H         -2.00379   -0.106273   9.463423 H        1 UNL1     0.0429
     90 H         -0.687474   -1.932305   8.591876 H        1 UNL1     0.0308
     91 H         1.00692   -1.702509   6.798073 H        1 UNL1     0.0233
     92 H         -0.547212   -1.050609   6.219111 H        1 UNL1     0.0233
     93 H         0.742914   0.033922   6.692367 H        1 UNL1     0.0233
     94 H         1.499885   0.071201   9.038354 H        1 UNL1     0.0233
     95 H         0.368974   -0.33272   10.339207 H        1 UNL1     0.0233
     96 H         1.368533   -1.606946   9.603529 H        1 UNL1     0.0233
     97 H         -11.332312   3.322342   2.321735 H        1 UNL1     0.0280
     98 H         -11.724506   1.828097   1.515136 H        1 UNL1     0.0280
     99 H         -12.40439   2.167027   3.134584 H        1 UNL1     0.0280
     100 H         -12.126751   1.711757   4.894076 H        1 UNL1     0.2922
     101 H         -3.611514   -3.627008   0.087416 H        1 UNL1     0.0236
     102 H         -5.132117   -4.138985   0.919104 H        1 UNL1     0.0236
     103 H         -3.573479   -4.648103   1.490892 H        1 UNL1     0.0236
     104 H         -0.766236   -2.252165   0.802257 H        1 UNL1     0.2098
     105 H         -1.085327   1.214175   -0.598858 H        1 UNL1     0.0234
     106 H         -1.156774   0.599029   1.076727 H        1 UNL1     0.0234
     107 H         0.0   0.0   0.0 H        1 UNL1     0.0234
     108 H         -4.153703   -0.650947   -2.896782 H        1 UNL1     0.2098
     109 H         -1.988024   2.916774   0.503591 H        1 UNL1     0.0234
     110 H         -3.751428   3.224562   0.595658 H        1 UNL1     0.0234
     111 H         -3.153965   1.614279   0.398503 H        1 UNL1     0.0234
     112 H         1.527291   2.263454   -4.659197 H        1 UNL1     0.0342
     113 H         0.859369   0.970986   -3.60012 H        1 UNL1     0.0342
     114 H         -0.216134   1.949179   -4.602319 H        1 UNL1     0.0342
     115 H         -2.99316   -0.139109   -4.767915 H        1 UNL1     0.0234
     116 H         -3.41325   1.559106   -4.522199 H        1 UNL1     0.0234
     117 H         -1.866293   1.04862   -5.229287 H        1 UNL1     0.0234
     118 H         -6.603121   3.488814   0.182827 H        1 UNL1     0.0309
     119 H         -8.102839   3.836292   1.09834 H        1 UNL1     0.0309
     120 H         -6.644153   3.290662   1.896262 H        1 UNL1     0.0309
     121 H         -3.716666   0.302277   -4.194329 H        1 UNL1     0.0524
     122 H         -2.736819   1.77426   -4.18941 H        1 UNL1     0.0524
     123 H         -2.881889   0.807324   -2.700206 H        1 UNL1     0.0524
@<TRIPOS>BOND
     1     1     2    1
     2     1    42    1
     3     2     3    2
     4     3     4    1
     5     4     5    2
     6     5     7    1
     7     6    75    1
     8     6    76    1
     9     6    77    1
    10     7     9   am
    11     9    10    1
    12    10    11    2
    13    10    43    1
    14    11    14    1
    15    11    15    1
    16    12    13   ar
    17    12    27   ar
    18    12    43    1
    19    13    14    1
    20    13    30   ar
    21    14    17    2
    22    15    16    1
    23    16    17    1
    24    16    18    1
    25    16    22    1
    26    18    19    1
    27    19    20    1
    28    20    21    1
    29    21    22    1
    30    23    24    1
    31    23    88    1
    32    23    89    1
    33    24    25    1
    34    24    26    1
    35    24    90    1
    36    25    91    1
    37    25    92    1
    38    25    93    1
    39    26    94    1
    40    26    95    1
    41    26    96    1
    42    27    28   ar
    43    28    29   ar
    44    29    30   ar
    45    29    31    1
    46    30    33    1
    47    31    32    1
    48    32    33    1
    49    32    35    1
    50    34    97    1
    51    34    98    1
    52    34    99    1
    53    35    61    1
    54    36    37    1
    55    36    60    1
    56    37    38    1
    57    38    39    1
    58    39    40    1
    59    40    41    1
    60    41    42    1
    61    45   100    1
    62    47   101    1
    63    47   102    1
    64    47   103    1
    65    48   104    1
    66    49   105    1
    67    49   106    1
    68    49   107    1
    69    50   108    1
    70    51    59    1
    71    52   109    1
    72    52   110    1
    73    52   111    1
    74    53    54    1
    75    54    55    2
    76    54    56    1
    77    56   112    1
    78    56   113    1
    79    56   114    1
    80    57   115    1
    81    57   116    1
    82    57   117    1
    83    58   118    1
    84    58   119    1
    85    58   120    1
    86    59   121    1
    87    59   122    1
    88    59   123    1
    89    60    61    2
    90     1    47    1
    91     1    62    1
    92     2    63    1
    93     3    64    1
    94     4    65    1
    95     5     6    1
    96     7     8    2
    97     9    78    1
    98    15    79    1
    99    18    80    1
   100    18    81    1
   101    19    82    1
   102    19    83    1
   103    20    23    1
   104    21    84    1
   105    21    85    1
   106    22    86    1
   107    22    87    1
   108    27    45    1
   109    28    34    1
   110    32    58    1
   111    33    46    2
   112    36    51    1
   113    36    66    1
   114    37    52    1
   115    37    67    1
   116    38    53    1
   117    38    68    1
   118    42    48    1
   119    42    72    1
   120    43    44    2
   121    60    73    1
   122    61    74    1
   123    39    69    1
   124    39    57    1
   125    40    70    1
   126    40    50    1
   127    41    71    1
   128    41    49    1
