@<TRIPOS>MOLECULE
*****
 123 128 0 0 0
SMALL
GASTEIGER

@<TRIPOS>ATOM
     1 C         -1.59256   3.709327   -0.946646 C.3        1 UNL1     0.0009
     2 C         -3.375657   4.213933   -0.8921 C.2        1 UNL1     -0.0787
     3 C         -4.631902   4.46257   -1.567432 C.2        1 UNL1     -0.0649
     4 C         -6.128684   4.843182   -0.873793 C.2        1 UNL1     -0.0542
     5 C         -7.530597   4.86473   -1.076907 C.2        1 UNL1     0.0115
     6 C         -8.648479   4.701592   -2.143231 C.3        1 UNL1     -0.0348
     7 C         -8.498965   4.967973   0.199256 C.2        1 UNL1     0.2441
     8 O         -9.049642   6.00769   0.534322 O.2        1 UNL1     -0.2702
     9 N         -8.87912   3.732447   0.751624 N.am        1 UNL1     -0.2772
     10 C         -7.958454   3.321425   1.687978 C.2        1 UNL1     0.1049
     11 C         -6.88646   2.708158   1.220052 C.2        1 UNL1     0.0801
     12 C         -6.682992   4.104263   3.692396 C.ar        1 UNL1     0.0753
     13 C         -5.509257   3.60488   3.04311 C.ar        1 UNL1     0.0305
     14 C         -5.593028   2.773096   1.844708 C.2        1 UNL1     0.0924
     15 N         -6.63404   2.227191   -0.009371 N.pl3        1 UNL1     -0.3170
     16 C         -5.394406   1.49912   0.049596 C.3        1 UNL1     0.1275
     17 N         -4.627859   2.148757   1.175696 N.2        1 UNL1     -0.2557
     18 C         -5.722242   0.085514   0.520703 C.3        1 UNL1     0.0016
     19 C         -6.757393   -0.512392   -0.418743 C.3        1 UNL1     0.0026
     20 N         -6.212432   -0.523362   -1.769271 N.3        1 UNL1     -0.3018
     21 C         -5.809383   0.785507   -2.287713 C.3        1 UNL1     0.0026
     22 C         -4.766037   1.365691   -1.331308 C.3        1 UNL1     0.0016
     23 C         -6.987776   -1.337849   -2.683654 C.3        1 UNL1     0.0012
     24 C         -6.824013   -2.828651   -2.348326 C.3        1 UNL1     -0.0339
     25 C         -6.86339   -3.697833   -3.616012 C.3        1 UNL1     -0.0615
     26 C         -5.544443   -3.047609   -1.559949 C.3        1 UNL1     -0.0615
     27 C         -6.601778   4.793783   4.899908 C.ar        1 UNL1     0.1347
     28 C         -5.411425   5.009707   5.571091 C.ar        1 UNL1     0.0342
     29 C         -4.264091   4.55203   4.888946 C.ar        1 UNL1     0.1435
     30 C         -4.326824   3.891584   3.661308 C.ar        1 UNL1     0.0774
     31 O         -3.041434   4.589723   5.462266 O.3        1 UNL1     -0.4436
     32 C         -2.259983   3.647572   4.712227 C.3        1 UNL1     0.3143
     33 C         -2.953346   3.53795   3.369303 C.2        1 UNL1     0.2504
     34 C         -5.272864   5.514502   6.980375 C.3        1 UNL1     -0.0327
     35 O         -0.981387   4.248876   4.473741 O.2        1 UNL1     -0.4528
     36 C         1.498786   1.381401   4.288227 C.3        1 UNL1     0.0854
     37 C         1.502691   0.127834   3.331108 C.3        1 UNL1     0.0236
     38 C         2.850007   -0.071987   2.484612 C.3        1 UNL1     0.1131
     39 C         3.442837   1.137546   1.655243 C.3        1 UNL1     0.0200
     40 C         2.438339   2.113717   0.749422 C.3        1 UNL1     0.0661
     41 C         1.270792   1.58088   -0.359869 C.3        1 UNL1     0.0091
     42 C         -0.34582   2.310447   -0.828589 C.3        1 UNL1     0.0661
     43 C         -7.997932   3.785797   3.082665 C.2        1 UNL1     0.2131
     44 O         -9.046856   3.796533   3.701035 O.2        1 UNL1     -0.2851
     45 O         -7.786869   5.286359   5.442464 O.3        1 UNL1     -0.5056
     46 O         -2.475153   3.246197   2.29596 O.2        1 UNL1     -0.2836
     47 C         -0.725619   4.855086   -1.534551 C.3        1 UNL1     -0.0566
     48 O         -0.113697   2.173348   -2.28682 O.3        1 UNL1     -0.3909
     49 C         1.043778   0.099577   -0.155664 C.3        1 UNL1     -0.0577
     50 O         1.912084   3.16125   1.539013 O.3        1 UNL1     -0.3910
     51 O         2.592864   2.260617   4.156311 O.3        1 UNL1     -0.3753
     52 C         0.089089   -0.141618   2.719492 C.3        1 UNL1     -0.0564
     53 O         2.972157   -1.432214   1.862368 O.3        1 UNL1     -0.4608
     54 C         3.505058   -1.696926   0.627915 C.2        1 UNL1     0.3042
     55 O         2.895027   -1.947234   -0.410857 O.2        1 UNL1     -0.2512
     56 C         5.003761   -1.60243   0.587014 C.3        1 UNL1     0.0332
     57 C         4.55155   1.847595   2.563406 C.3        1 UNL1     -0.0567
     58 C         -2.382222   2.293306   5.448806 C.3        1 UNL1     0.0210
     59 C         3.527754   2.219951   5.233434 C.3        1 UNL1     0.0372
     60 C         0.267812   2.215714   4.226714 C.2        1 UNL1     -0.0208
     61 C         0.123238   3.540369   4.170741 C.2        1 UNL1     0.0882
     62 H         -1.549781   3.812735   0.144312 H        1 UNL1     0.0365
     63 H         -3.480088   4.478939   0.162099 H        1 UNL1     0.0576
     64 H         -4.759919   4.256257   -2.632399 H        1 UNL1     0.0615
     65 H         -5.878541   5.106758   0.157438 H        1 UNL1     0.0622
     66 H         1.523756   0.955396   5.301116 H        1 UNL1     0.0645
     67 H         1.545713   -0.734494   4.018931 H        1 UNL1     0.0362
     68 H         3.561567   -0.237853   3.307834 H        1 UNL1     0.0741
     69 H         4.127458   0.748478   0.913402 H        1 UNL1     0.0359
     70 H         3.186583   2.606353   0.099421 H        1 UNL1     0.0600
     71 H         1.872831   1.582034   -1.289657 H        1 UNL1     0.0348
     72 H         0.230271   3.123407   -0.36326 H        1 UNL1     0.0602
     73 H         -0.582351   1.594406   4.362535 H        1 UNL1     0.0628
     74 H         0.935289   4.24161   3.975622 H        1 UNL1     0.1022
     75 H         -8.40537   5.29182   -3.059508 H        1 UNL1     0.0279
     76 H         -8.796311   3.700436   -2.541857 H        1 UNL1     0.0279
     77 H         -9.599637   5.160399   -1.83583 H        1 UNL1     0.0279
     78 H         -8.908631   3.025307   0.020079 H        1 UNL1     0.1553
     79 H         -7.346636   2.033369   -0.688762 H        1 UNL1     0.1484
     80 H         -4.801278   -0.509835   0.533023 H        1 UNL1     0.0317
     81 H         -6.103849   0.093838   1.547327 H        1 UNL1     0.0317
     82 H         -7.70861   0.03862   -0.380209 H        1 UNL1     0.0428
     83 H         -6.978004   -1.519461   -0.063507 H        1 UNL1     0.0428
     84 H         -5.33049   0.739404   -3.270743 H        1 UNL1     0.0428
     85 H         -6.672658   1.447462   -2.442274 H        1 UNL1     0.0428
     86 H         -4.398747   2.255267   -1.80853 H        1 UNL1     0.0317
     87 H         -3.884826   0.713441   -1.29764 H        1 UNL1     0.0317
     88 H         -8.045668   -1.067872   -2.568456 H        1 UNL1     0.0429
     89 H         -6.715793   -1.134549   -3.72743 H        1 UNL1     0.0429
     90 H         -7.640727   -3.139696   -1.686176 H        1 UNL1     0.0308
     91 H         -6.233122   -3.278117   -4.405761 H        1 UNL1     0.0233
     92 H         -6.53323   -4.715931   -3.396741 H        1 UNL1     0.0233
     93 H         -7.875068   -3.786937   -4.030021 H        1 UNL1     0.0233
     94 H         -5.21887   -4.089582   -1.650118 H        1 UNL1     0.0233
     95 H         -4.748424   -2.4103   -1.955111 H        1 UNL1     0.0233
     96 H         -5.685175   -2.820067   -0.499577 H        1 UNL1     0.0233
     97 H         -4.735257   4.814441   7.612928 H        1 UNL1     0.0280
     98 H         -4.710915   6.456353   7.029217 H        1 UNL1     0.0280
     99 H         -6.273121   5.675017   7.414906 H        1 UNL1     0.0280
     100 H         -8.323151   5.769079   4.838307 H        1 UNL1     0.2922
     101 H         -0.178155   5.350344   -0.732891 H        1 UNL1     0.0236
     102 H         -1.298216   5.560781   -2.135475 H        1 UNL1     0.0236
     103 H         0.05564   4.476193   -2.214453 H        1 UNL1     0.0236
     104 H         0.827533   2.374549   -2.455862 H        1 UNL1     0.2098
     105 H         1.313336   -0.517895   -1.008822 H        1 UNL1     0.0234
     106 H         1.479588   -0.306317   0.75716 H        1 UNL1     0.0234
     107 H         0.0   0.0   0.0 H        1 UNL1     0.0234
     108 H         1.170981   3.556165   1.04044 H        1 UNL1     0.2098
     109 H         -0.665597   -0.347998   3.491222 H        1 UNL1     0.0234
     110 H         -0.261345   0.669259   2.071866 H        1 UNL1     0.0234
     111 H         0.092883   -1.022873   2.064265 H        1 UNL1     0.0234
     112 H         5.361797   -1.80355   -0.427238 H        1 UNL1     0.0342
     113 H         5.363247   -0.638608   0.944311 H        1 UNL1     0.0342
     114 H         5.414579   -2.377144   1.24899 H        1 UNL1     0.0342
     115 H         5.372012   2.258952   1.959406 H        1 UNL1     0.0234
     116 H         4.164109   2.656834   3.185557 H        1 UNL1     0.0234
     117 H         5.098874   1.147252   3.217544 H        1 UNL1     0.0234
     118 H         -1.434342   1.996551   5.930954 H        1 UNL1     0.0309
     119 H         -3.182893   2.280891   6.195113 H        1 UNL1     0.0309
     120 H         -2.590143   1.461313   4.767144 H        1 UNL1     0.0309
     121 H         4.026986   3.187694   5.273396 H        1 UNL1     0.0524
     122 H         3.036805   2.059199   6.207685 H        1 UNL1     0.0524
     123 H         4.254887   1.429524   5.070352 H        1 UNL1     0.0524
@<TRIPOS>BOND
     1     1     2    1
     2     1    42    1
     3     2     3    2
     4     3     4    1
     5     4     5    2
     6     5     7    1
     7     6    75    1
     8     6    76    1
     9     6    77    1
    10     7     9   am
    11     9    10    1
    12    10    11    2
    13    10    43    1
    14    11    14    1
    15    11    15    1
    16    12    13   ar
    17    12    27   ar
    18    12    43    1
    19    13    14    1
    20    13    30   ar
    21    14    17    2
    22    15    16    1
    23    16    17    1
    24    16    18    1
    25    16    22    1
    26    18    19    1
    27    19    20    1
    28    20    21    1
    29    21    22    1
    30    23    24    1
    31    23    88    1
    32    23    89    1
    33    24    25    1
    34    24    26    1
    35    24    90    1
    36    25    91    1
    37    25    92    1
    38    25    93    1
    39    26    94    1
    40    26    95    1
    41    26    96    1
    42    27    28   ar
    43    28    29   ar
    44    29    30   ar
    45    29    31    1
    46    30    33    1
    47    31    32    1
    48    32    33    1
    49    32    35    1
    50    34    97    1
    51    34    98    1
    52    34    99    1
    53    35    61    1
    54    36    37    1
    55    36    60    1
    56    37    38    1
    57    38    39    1
    58    39    40    1
    59    40    41    1
    60    41    42    1
    61    45   100    1
    62    47   101    1
    63    47   102    1
    64    47   103    1
    65    48   104    1
    66    49   105    1
    67    49   106    1
    68    49   107    1
    69    50   108    1
    70    51    59    1
    71    52   109    1
    72    52   110    1
    73    52   111    1
    74    53    54    1
    75    54    55    2
    76    54    56    1
    77    56   112    1
    78    56   113    1
    79    56   114    1
    80    57   115    1
    81    57   116    1
    82    57   117    1
    83    58   118    1
    84    58   119    1
    85    58   120    1
    86    59   121    1
    87    59   122    1
    88    59   123    1
    89    60    61    2
    90     1    47    1
    91     1    62    1
    92     2    63    1
    93     3    64    1
    94     4    65    1
    95     5     6    1
    96     7     8    2
    97     9    78    1
    98    15    79    1
    99    18    80    1
   100    18    81    1
   101    19    82    1
   102    19    83    1
   103    20    23    1
   104    21    84    1
   105    21    85    1
   106    22    86    1
   107    22    87    1
   108    27    45    1
   109    28    34    1
   110    32    58    1
   111    33    46    2
   112    36    51    1
   113    36    66    1
   114    37    52    1
   115    37    67    1
   116    38    53    1
   117    38    68    1
   118    42    48    1
   119    42    72    1
   120    43    44    2
   121    60    73    1
   122    61    74    1
   123    39    69    1
   124    39    57    1
   125    40    70    1
   126    40    50    1
   127    41    71    1
   128    41    49    1
