@<TRIPOS>MOLECULE
*****
 123 128 0 0 0
SMALL
GASTEIGER

@<TRIPOS>ATOM
     1 C         3.360163   -1.014405   2.197316 C.3        1 UNL1     0.0009
     2 C         3.563167   -0.943635   4.038734 C.2        1 UNL1     -0.0787
     3 C         4.04496   -0.266405   5.224179 C.2        1 UNL1     -0.0649
     4 C         3.796074   -0.697401   6.842405 C.2        1 UNL1     -0.0542
     5 C         3.802169   -0.234489   8.181342 C.2        1 UNL1     0.0115
     6 C         4.200392   0.954896   9.097916 C.3        1 UNL1     -0.0348
     7 C         3.035256   -1.089888   9.302558 C.2        1 UNL1     0.2441
     8 O         3.61488   -1.819908   10.09479 O.2        1 UNL1     -0.2702
     9 N         1.684364   -0.745998   9.484172 N.am        1 UNL1     -0.2772
     10 C         0.886203   -1.463802   8.623348 C.2        1 UNL1     0.1049
     11 C         0.775184   -0.98569   7.397255 C.2        1 UNL1     0.0801
     12 C         0.440359   -3.783598   7.800485 C.ar        1 UNL1     0.0753
     13 C         0.537644   -3.24848   6.476554 C.ar        1 UNL1     0.0305
     14 C         0.57748   -1.80804   6.234487 C.2        1 UNL1     0.0924
     15 N         1.145289   0.206075   6.898007 N.pl3        1 UNL1     -0.3170
     16 C         0.645234   0.292922   5.551658 C.3        1 UNL1     0.1275
     17 N         0.567064   -1.140024   5.084455 N.2        1 UNL1     -0.2557
     18 C         -0.794698   0.790212   5.635324 C.3        1 UNL1     0.0016
     19 C         -0.811376   2.105777   6.397296 C.3        1 UNL1     0.0026
     20 N         0.033623   3.062902   5.696643 N.3        1 UNL1     -0.3018
     21 C         1.425093   2.645525   5.512313 C.3        1 UNL1     0.0026
     22 C         1.418308   1.324661   4.740842 C.3        1 UNL1     0.0016
     23 C         -0.146521   4.422707   6.164749 C.3        1 UNL1     0.0012
     24 C         -1.52121   4.961439   5.738425 C.3        1 UNL1     -0.0339
     25 C         -1.465903   6.468102   5.436819 C.3        1 UNL1     -0.0615
     26 C         -2.044277   4.172426   4.550722 C.3        1 UNL1     -0.0615
     27 C         0.281232   -5.150374   8.016634 C.ar        1 UNL1     0.1347
     28 C         0.166792   -6.071873   6.991064 C.ar        1 UNL1     0.0342
     29 C         0.314435   -5.528293   5.697276 C.ar        1 UNL1     0.1435
     30 C         0.510483   -4.16608   5.466708 C.ar        1 UNL1     0.0774
     31 O         0.118818   -6.27864   4.591057 O.3        1 UNL1     -0.4436
     32 C         -0.114585   -5.325691   3.543067 C.3        1 UNL1     0.3143
     33 C         0.530663   -4.041788   4.024172 C.2        1 UNL1     0.2504
     34 C         -0.254396   -7.50747   7.138573 C.3        1 UNL1     -0.0327
     35 O         0.627659   -5.761882   2.397613 O.2        1 UNL1     -0.4528
     36 C         -1.319397   -4.550425   -0.627191 C.3        1 UNL1     0.0854
     37 C         -1.751607   -3.083128   -1.011583 C.3        1 UNL1     0.0236
     38 C         -1.281529   -2.599334   -2.466477 C.3        1 UNL1     0.1131
     39 C         0.233198   -2.756086   -2.894613 C.3        1 UNL1     0.0200
     40 C         1.456764   -2.362885   -1.831262 C.3        1 UNL1     0.0661
     41 C         1.580541   -0.919505   -0.948684 C.3        1 UNL1     0.0091
     42 C         2.289834   -0.597322   0.712191 C.3        1 UNL1     0.0661
     43 C         0.424659   -2.825137   8.933343 C.2        1 UNL1     0.2131
     44 O         -0.032841   -3.087713   10.030833 O.2        1 UNL1     -0.2851
     45 O         0.240864   -5.594318   9.336756 O.3        1 UNL1     -0.5056
     46 O         0.980389   -3.13138   3.364812 O.2        1 UNL1     -0.2836
     47 C         4.706236   -1.388311   1.520366 C.3        1 UNL1     -0.0566
     48 O         3.068669   0.586591   0.275291 O.3        1 UNL1     -0.3909
     49 C         0.254614   -0.194521   -1.010422 C.3        1 UNL1     -0.0577
     50 O         1.774836   -3.463866   -1.00398 O.3        1 UNL1     -0.3910
     51 O         -0.435838   -5.186906   -1.522538 O.3        1 UNL1     -0.3753
     52 C         -1.736311   -2.128767   0.226928 C.3        1 UNL1     -0.0564
     53 O         -1.986812   -1.364304   -2.945646 O.3        1 UNL1     -0.4608
     54 C         -1.623224   -0.611838   -4.031707 C.2        1 UNL1     0.3042
     55 O         -1.03067   0.466452   -4.028637 O.2        1 UNL1     -0.2512
     56 C         -1.963092   -1.251733   -5.347662 C.3        1 UNL1     0.0332
     57 C         0.36496   -4.126581   -3.708589 C.3        1 UNL1     -0.0567
     58 C         -1.645538   -5.118812   3.472968 C.3        1 UNL1     0.0210
     59 C         -1.020477   -6.228841   -2.302559 C.3        1 UNL1     0.0372
     60 C         -0.732149   -4.697177   0.732502 C.2        1 UNL1     -0.0208
     61 C         0.345628   -5.368315   1.140811 C.2        1 UNL1     0.0882
     62 H         2.798507   -1.949043   2.314385 H        1 UNL1     0.0365
     63 H         3.138595   -1.907374   4.32755 H        1 UNL1     0.0576
     64 H         4.500959   0.724765   5.171696 H        1 UNL1     0.0615
     65 H         3.417345   -1.721435   6.784068 H        1 UNL1     0.0622
     66 H         -2.259221   -5.12013   -0.612601 H        1 UNL1     0.0645
     67 H         -2.845097   -3.152268   -1.145966 H        1 UNL1     0.0362
     68 H         -1.836298   -3.318896   -3.087752 H        1 UNL1     0.0741
     69 H         0.427612   -2.100275   -3.73278 H        1 UNL1     0.0359
     70 H         2.306875   -2.292118   -2.536503 H        1 UNL1     0.0600
     71 H         2.190575   -0.316241   -1.649318 H        1 UNL1     0.0348
     72 H         2.716865   -1.554938   0.380632 H        1 UNL1     0.0602
     73 H         -1.389083   -4.264008   1.445279 H        1 UNL1     0.0628
     74 H         1.098063   -5.790981   0.474154 H        1 UNL1     0.1022
     75 H         5.239191   1.295131   8.869509 H        1 UNL1     0.0279
     76 H         3.623663   1.869948   8.983323 H        1 UNL1     0.0279
     77 H         4.294781   0.66448   10.154538 H        1 UNL1     0.0279
     78 H         1.551445   0.241041   9.27402 H        1 UNL1     0.1553
     79 H         1.327181   1.014702   7.463667 H        1 UNL1     0.1484
     80 H         -1.19098   0.910489   4.619814 H        1 UNL1     0.0317
     81 H         -1.433979   0.055339   6.136256 H        1 UNL1     0.0317
     82 H         -0.483572   1.976904   7.439337 H        1 UNL1     0.0428
     83 H         -1.847638   2.441573   6.44681 H        1 UNL1     0.0428
     84 H         2.017438   3.345326   4.914637 H        1 UNL1     0.0428
     85 H         1.964526   2.587728   6.467817 H        1 UNL1     0.0428
     86 H         2.446998   1.11929   4.509307 H        1 UNL1     0.0317
     87 H         0.96015   1.469002   3.754763 H        1 UNL1     0.0317
     88 H         -0.098789   4.415488   7.261546 H        1 UNL1     0.0429
     89 H         0.661686   5.076246   5.811956 H        1 UNL1     0.0429
     90 H         -2.239925   4.79381   6.549328 H        1 UNL1     0.0308
     91 H         -0.60209   6.717461   4.813321 H        1 UNL1     0.0233
     92 H         -2.378395   6.794886   4.932658 H        1 UNL1     0.0233
     93 H         -1.386182   7.073705   6.347712 H        1 UNL1     0.0233
     94 H         -2.792393   4.759543   4.007167 H        1 UNL1     0.0233
     95 H         -1.225545   3.948365   3.861202 H        1 UNL1     0.0233
     96 H         -2.505856   3.233061   4.867749 H        1 UNL1     0.0233
     97 H         -1.138926   -7.735004   6.55115 H        1 UNL1     0.0280
     98 H         0.52175   -8.203834   6.795163 H        1 UNL1     0.0280
     99 H         -0.478438   -7.719464   8.196855 H        1 UNL1     0.0280
     100 H         0.935037   -5.266919   9.881326 H        1 UNL1     0.2922
     101 H         4.676945   -2.427321   1.192865 H        1 UNL1     0.0236
     102 H         5.573182   -1.181255   2.146877 H        1 UNL1     0.0236
     103 H         4.881058   -0.809077   0.598348 H        1 UNL1     0.0236
     104 H         3.942319   0.269784   -0.026934 H        1 UNL1     0.2098
     105 H         0.287201   0.757365   -1.534504 H        1 UNL1     0.0234
     106 H         -0.577558   -0.797435   -1.373618 H        1 UNL1     0.0234
     107 H         -0.0   0.0   0.0 H        1 UNL1     0.0234
     108 H         1.586795   -4.274589   -1.514995 H        1 UNL1     0.2098
     109 H         -2.430706   -2.456428   1.013162 H        1 UNL1     0.0234
     110 H         -0.736709   -1.993716   0.653894 H        1 UNL1     0.0234
     111 H         -2.050529   -1.111498   -0.042102 H        1 UNL1     0.0234
     112 H         -1.628748   -0.611912   -6.169969 H        1 UNL1     0.0342
     113 H         -1.544216   -2.25298   -5.436492 H        1 UNL1     0.0342
     114 H         -3.056175   -1.341156   -5.413536 H        1 UNL1     0.0342
     115 H         1.160909   -4.766922   -3.304093 H        1 UNL1     0.0234
     116 H         -0.55217   -4.718471   -3.732808 H        1 UNL1     0.0234
     117 H         0.709359   -3.989488   -4.748077 H        1 UNL1     0.0234
     118 H         -2.079963   -5.546397   2.552397 H        1 UNL1     0.0309
     119 H         -2.174213   -5.525507   4.340899 H        1 UNL1     0.0309
     120 H         -1.924604   -4.06098   3.41623 H        1 UNL1     0.0309
     121 H         -0.224269   -6.918736   -2.580866 H        1 UNL1     0.0524
     122 H         -1.773972   -6.802172   -1.737248 H        1 UNL1     0.0524
     123 H         -1.486581   -5.815697   -3.192589 H        1 UNL1     0.0524
@<TRIPOS>BOND
     1     1     2    1
     2     1    42    1
     3     2     3    2
     4     3     4    1
     5     4     5    2
     6     5     7    1
     7     6    75    1
     8     6    76    1
     9     6    77    1
    10     7     9   am
    11     9    10    1
    12    10    11    2
    13    10    43    1
    14    11    14    1
    15    11    15    1
    16    12    13   ar
    17    12    27   ar
    18    12    43    1
    19    13    14    1
    20    13    30   ar
    21    14    17    2
    22    15    16    1
    23    16    17    1
    24    16    18    1
    25    16    22    1
    26    18    19    1
    27    19    20    1
    28    20    21    1
    29    21    22    1
    30    23    24    1
    31    23    88    1
    32    23    89    1
    33    24    25    1
    34    24    26    1
    35    24    90    1
    36    25    91    1
    37    25    92    1
    38    25    93    1
    39    26    94    1
    40    26    95    1
    41    26    96    1
    42    27    28   ar
    43    28    29   ar
    44    29    30   ar
    45    29    31    1
    46    30    33    1
    47    31    32    1
    48    32    33    1
    49    32    35    1
    50    34    97    1
    51    34    98    1
    52    34    99    1
    53    35    61    1
    54    36    37    1
    55    36    60    1
    56    37    38    1
    57    38    39    1
    58    39    40    1
    59    40    41    1
    60    41    42    1
    61    45   100    1
    62    47   101    1
    63    47   102    1
    64    47   103    1
    65    48   104    1
    66    49   105    1
    67    49   106    1
    68    49   107    1
    69    50   108    1
    70    51    59    1
    71    52   109    1
    72    52   110    1
    73    52   111    1
    74    53    54    1
    75    54    55    2
    76    54    56    1
    77    56   112    1
    78    56   113    1
    79    56   114    1
    80    57   115    1
    81    57   116    1
    82    57   117    1
    83    58   118    1
    84    58   119    1
    85    58   120    1
    86    59   121    1
    87    59   122    1
    88    59   123    1
    89    60    61    2
    90     1    47    1
    91     1    62    1
    92     2    63    1
    93     3    64    1
    94     4    65    1
    95     5     6    1
    96     7     8    2
    97     9    78    1
    98    15    79    1
    99    18    80    1
   100    18    81    1
   101    19    82    1
   102    19    83    1
   103    20    23    1
   104    21    84    1
   105    21    85    1
   106    22    86    1
   107    22    87    1
   108    27    45    1
   109    28    34    1
   110    32    58    1
   111    33    46    2
   112    36    51    1
   113    36    66    1
   114    37    52    1
   115    37    67    1
   116    38    53    1
   117    38    68    1
   118    42    48    1
   119    42    72    1
   120    43    44    2
   121    60    73    1
   122    61    74    1
   123    39    69    1
   124    39    57    1
   125    40    70    1
   126    40    50    1
   127    41    71    1
   128    41    49    1
