@<TRIPOS>MOLECULE
*****
 123 128 0 0 0
SMALL
GASTEIGER

@<TRIPOS>ATOM
     1 C         3.700798   -2.132293   2.204802 C.3        1 UNL1     0.0009
     2 C         4.612981   -3.745671   2.160419 C.2        1 UNL1     -0.0787
     3 C         4.715062   -5.14148   2.531019 C.2        1 UNL1     -0.0649
     4 C         5.873723   -6.26931   2.029162 C.2        1 UNL1     -0.0542
     5 C         6.16839   -7.648179   1.891428 C.2        1 UNL1     0.0115
     6 C         5.687072   -9.078818   2.25875 C.3        1 UNL1     -0.0348
     7 C         7.358341   -8.094083   0.910523 C.2        1 UNL1     0.2441
     8 O         8.46483   -8.42471   1.314123 O.2        1 UNL1     -0.2702
     9 N         6.96822   -8.330466   -0.419169 N.am        1 UNL1     -0.2772
     10 C         7.021861   -7.165632   -1.149653 C.2        1 UNL1     0.1049
     11 C         5.973047   -6.368899   -1.052552 C.2        1 UNL1     0.0801
     12 C         8.501879   -5.217486   -1.670812 C.ar        1 UNL1     0.0753
     13 C         7.384251   -4.382858   -1.350013 C.ar        1 UNL1     0.0305
     14 C         6.045853   -4.936773   -1.157866 C.2        1 UNL1     0.0924
     15 N         4.760444   -6.59817   -0.52005 N.pl3        1 UNL1     -0.3170
     16 C         3.926171   -5.465763   -0.82319 C.3        1 UNL1     0.1275
     17 N         4.889444   -4.311557   -0.956002 N.2        1 UNL1     -0.2557
     18 C         3.343298   -5.693157   -2.214683 C.3        1 UNL1     0.0016
     19 C         2.616975   -7.028796   -2.2254 C.3        1 UNL1     0.0026
     20 N         1.567393   -6.9986   -1.216196 N.3        1 UNL1     -0.3018
     21 C         2.024131   -6.724281   0.147809 C.3        1 UNL1     0.0026
     22 C         2.746743   -5.3761   0.136216 C.3        1 UNL1     0.0016
     23 C         0.629844   -8.096397   -1.344599 C.3        1 UNL1     0.0012
     24 C         -0.240114   -7.917835   -2.59881 C.3        1 UNL1     -0.0339
     25 C         0.327628   -8.701975   -3.793319 C.3        1 UNL1     -0.0615
     26 C         -1.674462   -8.317163   -2.298874 C.3        1 UNL1     -0.0615
     27 C         9.747663   -4.6716   -1.971063 C.ar        1 UNL1     0.1347
     28 C         9.986556   -3.309809   -2.021107 C.ar        1 UNL1     0.0342
     29 C         8.884354   -2.508845   -1.653995 C.ar        1 UNL1     0.1435
     30 C         7.640294   -3.042791   -1.315713 C.ar        1 UNL1     0.0774
     31 O         8.925438   -1.162627   -1.758955 O.3        1 UNL1     -0.4436
     32 C         7.548289   -0.757333   -1.767402 C.3        1 UNL1     0.3143
     33 C         6.798926   -1.886287   -1.089072 C.2        1 UNL1     0.2504
     34 C         11.218247   -2.65054   -2.576446 C.3        1 UNL1     -0.0327
     35 O         7.436396   0.389051   -0.915031 O.2        1 UNL1     -0.4528
     36 C         4.584235   2.459438   -2.324557 C.3        1 UNL1     0.0854
     37 C         3.083132   2.046417   -2.576799 C.3        1 UNL1     0.0236
     38 C         1.994839   2.99195   -1.874426 C.3        1 UNL1     0.1131
     39 C         2.12344   3.327214   -0.333864 C.3        1 UNL1     0.0200
     40 C         2.508909   2.130155   0.761992 C.3        1 UNL1     0.0661
     41 C         1.756059   0.61493   0.884148 C.3        1 UNL1     0.0091
     42 C         2.434723   -1.014149   1.385066 C.3        1 UNL1     0.0661
     43 C         8.268155   -6.680203   -1.76077 C.2        1 UNL1     0.2131
     44 O         8.987778   -7.43973   -2.383663 O.2        1 UNL1     -0.2851
     45 O         10.794201   -5.555003   -2.227569 O.3        1 UNL1     -0.5056
     46 O         5.753921   -1.837853   -0.479586 O.2        1 UNL1     -0.2836
     47 C         3.861916   -1.459771   3.594671 C.3        1 UNL1     -0.0566
     48 O         1.318765   -1.321872   2.311921 O.3        1 UNL1     -0.3909
     49 C         0.922037   0.383002   -0.356058 C.3        1 UNL1     -0.0577
     50 O         3.910406   1.983585   0.871749 O.3        1 UNL1     -0.3910
     51 O         4.790181   3.488629   -1.383397 O.3        1 UNL1     -0.3753
     52 C         2.911404   0.494009   -2.650883 C.3        1 UNL1     -0.0564
     53 O         0.603128   2.801091   -2.402669 O.3        1 UNL1     -0.4608
     54 C         -0.549014   3.17271   -1.760486 C.2        1 UNL1     0.3042
     55 O         -1.410689   2.434127   -1.28525 O.2        1 UNL1     -0.2512
     56 C         -0.695235   4.659137   -1.599652 C.3        1 UNL1     0.0332
     57 C         2.885996   4.727427   -0.207029 C.3        1 UNL1     -0.0567
     58 C         7.119698   -0.695248   -3.251984 C.3        1 UNL1     0.0210
     59 C         5.982573   4.247992   -1.576882 C.3        1 UNL1     0.0372
     60 C         5.488468   1.34083   -1.942143 C.2        1 UNL1     -0.0208
     61 C         6.419171   1.268641   -0.989607 C.2        1 UNL1     0.0882
     62 H         4.47263   -1.700026   1.556627 H        1 UNL1     0.0365
     63 H         5.516913   -3.453723   1.62177 H        1 UNL1     0.0576
     64 H         3.913424   -5.650517   3.070802 H        1 UNL1     0.0615
     65 H         6.657402   -5.654662   1.57801 H        1 UNL1     0.0622
     66 H         4.940757   2.814485   -3.301737 H        1 UNL1     0.0645
     67 H         2.917536   2.27614   -3.643741 H        1 UNL1     0.0362
     68 H         2.207252   3.936888   -2.397392 H        1 UNL1     0.0741
     69 H         1.166219   3.6795   0.026735 H        1 UNL1     0.0359
     70 H         2.20845   2.62924   1.703107 H        1 UNL1     0.0600
     71 H         0.972833   0.847977   1.631947 H        1 UNL1     0.0348
     72 H         3.136634   -0.261246   1.772073 H        1 UNL1     0.0602
     73 H         5.393393   0.55673   -2.651646 H        1 UNL1     0.0628
     74 H         6.542541   2.001179   -0.19123 H        1 UNL1     0.1022
     75 H         4.746264   -9.033944   2.858668 H        1 UNL1     0.0279
     76 H         5.405535   -9.723823   1.429428 H        1 UNL1     0.0279
     77 H         6.365686   -9.589475   2.957616 H        1 UNL1     0.0279
     78 H         6.005664   -8.660835   -0.43964 H        1 UNL1     0.1553
     79 H         4.391139   -7.515612   -0.350202 H        1 UNL1     0.1484
     80 H         2.664926   -4.866385   -2.457636 H        1 UNL1     0.0317
     81 H         4.131542   -5.685636   -2.975121 H        1 UNL1     0.0317
     82 H         3.306492   -7.868576   -2.054375 H        1 UNL1     0.0428
     83 H         2.210729   -7.171777   -3.227184 H        1 UNL1     0.0428
     84 H         1.209367   -6.62794   0.872164 H        1 UNL1     0.0428
     85 H         2.639175   -7.543378   0.545447 H        1 UNL1     0.0428
     86 H         2.9482   -5.146698   1.166156 H        1 UNL1     0.0317
     87 H         2.054276   -4.582422   -0.169824 H        1 UNL1     0.0317
     88 H         1.204587   -9.026127   -1.447388 H        1 UNL1     0.0429
     89 H         0.01037   -8.199108   -0.444334 H        1 UNL1     0.0429
     90 H         -0.274413   -6.85442   -2.863735 H        1 UNL1     0.0308
     91 H         0.416278   -9.767976   -3.563352 H        1 UNL1     0.0233
     92 H         -0.306396   -8.576631   -4.674178 H        1 UNL1     0.0233
     93 H         1.326679   -8.35504   -4.083782 H        1 UNL1     0.0233
     94 H         -2.252308   -8.3757   -3.227584 H        1 UNL1     0.0233
     95 H         -1.696706   -9.302658   -1.825307 H        1 UNL1     0.0233
     96 H         -2.159114   -7.595603   -1.635223 H        1 UNL1     0.0233
     97 H         11.151644   -1.567235   -2.541145 H        1 UNL1     0.0280
     98 H         12.120442   -2.914802   -2.009465 H        1 UNL1     0.0280
     99 H         11.357557   -2.954138   -3.62693 H        1 UNL1     0.0280
     100 H         11.234664   -5.412816   -3.046957 H        1 UNL1     0.2922
     101 H         3.358132   -0.493409   3.596135 H        1 UNL1     0.0236
     102 H         4.900342   -1.380129   3.914533 H        1 UNL1     0.0236
     103 H         3.365211   -2.035528   4.393409 H        1 UNL1     0.0236
     104 H         1.593002   -1.041683   3.207052 H        1 UNL1     0.2098
     105 H         0.70977   1.282076   -0.929137 H        1 UNL1     0.0234
     106 H         1.291301   -0.404931   -1.012361 H        1 UNL1     0.0234
     107 H         0.0   -0.0   0.0 H        1 UNL1     0.0234
     108 H         4.238515   1.674661   0.005332 H        1 UNL1     0.2098
     109 H         3.233673   -0.004752   -1.726171 H        1 UNL1     0.0234
     110 H         1.889666   0.185262   -2.896787 H        1 UNL1     0.0234
     111 H         3.521726   0.057098   -3.452483 H        1 UNL1     0.0234
     112 H         -1.627757   4.886678   -1.074321 H        1 UNL1     0.0342
     113 H         0.158785   5.101815   -1.089231 H        1 UNL1     0.0342
     114 H         -0.754311   5.108374   -2.600583 H        1 UNL1     0.0342
     115 H         2.347672   5.53391   -0.723731 H        1 UNL1     0.0234
     116 H         3.052321   5.050694   0.822477 H        1 UNL1     0.0234
     117 H         3.856645   4.748844   -0.731742 H        1 UNL1     0.0234
     118 H         7.409433   0.258068   -3.727638 H        1 UNL1     0.0309
     119 H         7.511364   -1.526124   -3.847337 H        1 UNL1     0.0309
     120 H         6.031596   -0.719295   -3.376732 H        1 UNL1     0.0309
     121 H         6.827366   3.567974   -1.470784 H        1 UNL1     0.0524
     122 H         6.037526   4.690872   -2.585284 H        1 UNL1     0.0524
     123 H         6.046033   5.042604   -0.838872 H        1 UNL1     0.0524
@<TRIPOS>BOND
     1     1     2    1
     2     1    42    1
     3     2     3    2
     4     3     4    1
     5     4     5    2
     6     5     7    1
     7     6    75    1
     8     6    76    1
     9     6    77    1
    10     7     9   am
    11     9    10    1
    12    10    11    2
    13    10    43    1
    14    11    14    1
    15    11    15    1
    16    12    13   ar
    17    12    27   ar
    18    12    43    1
    19    13    14    1
    20    13    30   ar
    21    14    17    2
    22    15    16    1
    23    16    17    1
    24    16    18    1
    25    16    22    1
    26    18    19    1
    27    19    20    1
    28    20    21    1
    29    21    22    1
    30    23    24    1
    31    23    88    1
    32    23    89    1
    33    24    25    1
    34    24    26    1
    35    24    90    1
    36    25    91    1
    37    25    92    1
    38    25    93    1
    39    26    94    1
    40    26    95    1
    41    26    96    1
    42    27    28   ar
    43    28    29   ar
    44    29    30   ar
    45    29    31    1
    46    30    33    1
    47    31    32    1
    48    32    33    1
    49    32    35    1
    50    34    97    1
    51    34    98    1
    52    34    99    1
    53    35    61    1
    54    36    37    1
    55    36    60    1
    56    37    38    1
    57    38    39    1
    58    39    40    1
    59    40    41    1
    60    41    42    1
    61    45   100    1
    62    47   101    1
    63    47   102    1
    64    47   103    1
    65    48   104    1
    66    49   105    1
    67    49   106    1
    68    49   107    1
    69    50   108    1
    70    51    59    1
    71    52   109    1
    72    52   110    1
    73    52   111    1
    74    53    54    1
    75    54    55    2
    76    54    56    1
    77    56   112    1
    78    56   113    1
    79    56   114    1
    80    57   115    1
    81    57   116    1
    82    57   117    1
    83    58   118    1
    84    58   119    1
    85    58   120    1
    86    59   121    1
    87    59   122    1
    88    59   123    1
    89    60    61    2
    90     1    47    1
    91     1    62    1
    92     2    63    1
    93     3    64    1
    94     4    65    1
    95     5     6    1
    96     7     8    2
    97     9    78    1
    98    15    79    1
    99    18    80    1
   100    18    81    1
   101    19    82    1
   102    19    83    1
   103    20    23    1
   104    21    84    1
   105    21    85    1
   106    22    86    1
   107    22    87    1
   108    27    45    1
   109    28    34    1
   110    32    58    1
   111    33    46    2
   112    36    51    1
   113    36    66    1
   114    37    52    1
   115    37    67    1
   116    38    53    1
   117    38    68    1
   118    42    48    1
   119    42    72    1
   120    43    44    2
   121    60    73    1
   122    61    74    1
   123    39    69    1
   124    39    57    1
   125    40    70    1
   126    40    50    1
   127    41    71    1
   128    41    49    1
