@<TRIPOS>MOLECULE
*****
 123 128 0 0 0
SMALL
GASTEIGER

@<TRIPOS>ATOM
     1 C         -0.484379   4.548999   3.007954 C.3        1 UNL1     0.0009
     2 C         -0.264269   6.389065   3.060344 C.2        1 UNL1     -0.0787
     3 C         0.504123   7.551478   3.453301 C.2        1 UNL1     -0.0649
     4 C         0.209482   9.173123   3.066245 C.2        1 UNL1     -0.0542
     5 C         0.780718   10.465945   2.969404 C.2        1 UNL1     0.0115
     6 C         2.038111   11.312799   3.308699 C.3        1 UNL1     -0.0348
     7 C         0.026472   11.585435   2.100586 C.2        1 UNL1     0.2441
     8 O         -0.640663   12.479633   2.60245 O.2        1 UNL1     -0.2702
     9 N         0.394964   11.625901   0.744589 N.am        1 UNL1     -0.2772
     10 C         -0.384664   10.76298   0.009151 C.2        1 UNL1     0.1049
     11 C         -0.007973   9.497153   0.006104 C.2        1 UNL1     0.0801
     12 C         -2.760537   10.097013   -0.402005 C.ar        1 UNL1     0.0753
     13 C         -2.336745   8.746654   -0.188609 C.ar        1 UNL1     0.0305
     14 C         -0.921414   8.3926   -0.107757 C.2        1 UNL1     0.0924
     15 N         1.135755   8.935226   0.433481 N.pl3        1 UNL1     -0.3170
     16 C         1.115768   7.549459   0.04682 C.3        1 UNL1     0.1275
     17 N         -0.35003   7.195248   -0.013977 N.2        1 UNL1     -0.2557
     18 C         1.629809   7.472804   -1.387609 C.3        1 UNL1     0.0016
     19 C         3.003593   8.121459   -1.447232 C.3        1 UNL1     0.0026
     20 N         3.893125   7.417907   -0.533572 N.3        1 UNL1     -0.3018
     21 C         3.450847   7.384073   0.861998 C.3        1 UNL1     0.0026
     22 C         2.071191   6.72447   0.898939 C.3        1 UNL1     0.0016
     23 C         5.288181   7.757536   -0.731347 C.3        1 UNL1     0.0012
     24 C         5.424151   8.912579   -1.735909 C.3        1 UNL1     -0.0339
     25 C         4.218721   8.974338   -2.68837 C.3        1 UNL1     -0.0615
     26 C         5.620611   10.224941   -0.997066 C.3        1 UNL1     -0.0615
     27 C         -4.103624   10.409454   -0.598519 C.ar        1 UNL1     0.1347
     28 C         -5.105278   9.456123   -0.642119 C.ar        1 UNL1     0.0342
     29 C         -4.670982   8.139192   -0.380886 C.ar        1 UNL1     0.1435
     30 C         -3.333923   7.815862   -0.146465 C.ar        1 UNL1     0.0774
     31 O         -5.508037   7.085134   -0.496238 O.3        1 UNL1     -0.4436
     32 C         -4.642519   5.947516   -0.628819 C.3        1 UNL1     0.3143
     33 C         -3.328675   6.374654   -0.006261 C.2        1 UNL1     0.2504
     34 C         -6.520481   9.684246   -1.095174 C.3        1 UNL1     -0.0327
     35 O         -5.177252   4.906749   0.198293 O.2        1 UNL1     -0.4528
     36 C         -4.202662   1.642602   -1.476105 C.3        1 UNL1     0.0854
     37 C         -2.768459   1.105865   -1.853594 C.3        1 UNL1     0.0236
     38 C         -2.409566   -0.339496   -1.258723 C.3        1 UNL1     0.1131
     39 C         -2.613118   -0.626426   0.283518 C.3        1 UNL1     0.0200
     40 C         -2.143775   0.499276   1.421477 C.3        1 UNL1     0.0661
     41 C         -0.633837   1.268991   1.493824 C.3        1 UNL1     0.0091
     42 C         -0.182068   2.951305   2.069263 C.3        1 UNL1     0.0661
     43 C         -1.712191   11.143116   -0.496341 C.2        1 UNL1     0.2131
     44 O         -1.880071   12.216574   -1.046105 O.2        1 UNL1     -0.2851
     45 O         -4.437324   11.753348   -0.753535 O.3        1 UNL1     -0.5056
     46 O         -2.479131   5.683135   0.509424 O.2        1 UNL1     -0.2836
     47 C         -0.923422   4.01858   4.399312 C.3        1 UNL1     -0.0566
     48 O         0.95567   2.48583   2.898723 O.3        1 UNL1     -0.3909
     49 C         0.094265   1.038884   0.188293 C.3        1 UNL1     -0.0577
     50 O         -3.175625   1.436711   1.654336 O.3        1 UNL1     -0.3910
     51 O         -4.9176   0.878226   -0.531634 O.3        1 UNL1     -0.3753
     52 C         -1.715771   2.25981   -1.925763 C.3        1 UNL1     -0.0564
     53 O         -1.212425   -0.974158   -1.904003 O.3        1 UNL1     -0.4608
     54 C         -0.551473   -2.080746   -1.438671 C.2        1 UNL1     0.3042
     55 O         0.659967   -2.209694   -1.266555 O.2        1 UNL1     -0.2512
     56 C         -1.464726   -3.212047   -1.060728 C.3        1 UNL1     0.0332
     57 C         -4.046841   -1.312731   0.461275 C.3        1 UNL1     -0.0567
     58 C         -4.429794   5.734162   -2.145644 C.3        1 UNL1     0.0210
     59 C         -5.640007   -0.224947   -1.076614 C.3        1 UNL1     0.0372
     60 C         -4.24198   3.053714   -1.004534 C.2        1 UNL1     -0.0208
     61 C         -4.885965   3.603105   0.026095 C.2        1 UNL1     0.0882
     62 H         -1.401701   4.694576   2.424826 H        1 UNL1     0.0365
     63 H         -1.197592   6.718957   2.599314 H        1 UNL1     0.0576
     64 H         1.483938   7.456701   3.926681 H        1 UNL1     0.0615
     65 H         -0.812805   9.166902   2.678465 H        1 UNL1     0.0622
     66 H         -4.76167   1.625414   -2.422287 H        1 UNL1     0.0645
     67 H         -2.839607   0.887338   -2.93329 H        1 UNL1     0.0362
     68 H         -3.173231   -0.944164   -1.771279 H        1 UNL1     0.0741
     69 H         -2.029935   -1.496046   0.555669 H        1 UNL1     0.0359
     70 H         -2.137997   -0.13646   2.327494 H        1 UNL1     0.0600
     71 H         -0.095069   0.574701   2.168099 H        1 UNL1     0.0348
     72 H         -1.167078   2.735124   2.507823 H        1 UNL1     0.0602
     73 H         -3.746475   3.672046   -1.711209 H        1 UNL1     0.0628
     74 H         -5.367983   3.037647   0.824314 H        1 UNL1     0.1022
     75 H         2.276593   11.241669   4.397323 H        1 UNL1     0.0279
     76 H         2.971417   11.003281   2.843717 H        1 UNL1     0.0279
     77 H         1.866697   12.3932   3.194454 H        1 UNL1     0.0279
     78 H         1.362449   11.326027   0.643962 H        1 UNL1     0.1553
     79 H         1.986613   9.446507   0.580332 H        1 UNL1     0.1484
     80 H         1.66947   6.421534   -1.697485 H        1 UNL1     0.0317
     81 H         0.943716   7.977   -2.076605 H        1 UNL1     0.0317
     82 H         2.958094   9.194101   -1.207898 H        1 UNL1     0.0428
     83 H         3.350641   8.057461   -2.478984 H        1 UNL1     0.0428
     84 H         4.09442   6.782743   1.511633 H        1 UNL1     0.0428
     85 H         3.467375   8.382541   1.320371 H        1 UNL1     0.0428
     86 H         1.839236   6.596461   1.939996 H        1 UNL1     0.0317
     87 H         2.137749   5.695346   0.525346 H        1 UNL1     0.0317
     88 H         5.700574   8.082534   0.232811 H        1 UNL1     0.0429
     89 H         5.869813   6.883561   -1.051734 H        1 UNL1     0.0429
     90 H         6.332757   8.765347   -2.331703 H        1 UNL1     0.0308
     91 H         3.765997   9.970392   -2.692868 H        1 UNL1     0.0233
     92 H         4.516608   8.711191   -3.706027 H        1 UNL1     0.0233
     93 H         3.428634   8.267052   -2.408469 H        1 UNL1     0.0233
     94 H         5.400497   10.09533   0.068104 H        1 UNL1     0.0233
     95 H         6.659593   10.5536   -1.089044 H        1 UNL1     0.0233
     96 H         4.966609   11.007225   -1.392389 H        1 UNL1     0.0233
     97 H         -7.016789   10.452667   -0.509991 H        1 UNL1     0.0280
     98 H         -6.571685   10.02121   -2.138769 H        1 UNL1     0.0280
     99 H         -7.095173   8.748882   -0.995584 H        1 UNL1     0.0280
     100 H         -3.813169   12.257537   -1.245312 H        1 UNL1     0.2922
     101 H         -0.044599   3.837407   5.01778 H        1 UNL1     0.0236
     102 H         -1.569342   3.143218   4.340047 H        1 UNL1     0.0236
     103 H         -1.511399   4.764227   4.960104 H        1 UNL1     0.0236
     104 H         1.054985   1.525009   2.750635 H        1 UNL1     0.2098
     105 H         -0.327545   1.570557   -0.660949 H        1 UNL1     0.0234
     106 H         1.171974   1.194943   0.23429 H        1 UNL1     0.0234
     107 H         0.0   0.0   0.0 H        1 UNL1     0.0234
     108 H         -2.89003   2.285326   1.264391 H        1 UNL1     0.2098
     109 H         -0.754918   1.92116   -2.337818 H        1 UNL1     0.0234
     110 H         -2.069385   3.130393   -2.488601 H        1 UNL1     0.0234
     111 H         -1.486935   2.661759   -0.929763 H        1 UNL1     0.0234
     112 H         -2.419269   -3.111181   -1.586104 H        1 UNL1     0.0342
     113 H         -1.013638   -4.184319   -1.253213 H        1 UNL1     0.0342
     114 H         -1.665109   -3.14566   0.017513 H        1 UNL1     0.0342
     115 H         -4.599974   -1.354634   -0.487133 H        1 UNL1     0.0234
     116 H         -4.006699   -2.327123   0.863081 H        1 UNL1     0.0234
     117 H         -4.740983   -0.725775   1.087048 H        1 UNL1     0.0234
     118 H         -3.62964   5.002253   -2.353175 H        1 UNL1     0.0309
     119 H         -5.341068   5.426346   -2.668168 H        1 UNL1     0.0309
     120 H         -4.080889   6.640375   -2.652743 H        1 UNL1     0.0309
     121 H         -5.909281   -0.882964   -0.250865 H        1 UNL1     0.0524
     122 H         -6.575237   0.08961   -1.568991 H        1 UNL1     0.0524
     123 H         -5.025055   -0.758455   -1.795847 H        1 UNL1     0.0524
@<TRIPOS>BOND
     1     1     2    1
     2     1    42    1
     3     2     3    2
     4     3     4    1
     5     4     5    2
     6     5     7    1
     7     6    75    1
     8     6    76    1
     9     6    77    1
    10     7     9   am
    11     9    10    1
    12    10    11    2
    13    10    43    1
    14    11    14    1
    15    11    15    1
    16    12    13   ar
    17    12    27   ar
    18    12    43    1
    19    13    14    1
    20    13    30   ar
    21    14    17    2
    22    15    16    1
    23    16    17    1
    24    16    18    1
    25    16    22    1
    26    18    19    1
    27    19    20    1
    28    20    21    1
    29    21    22    1
    30    23    24    1
    31    23    88    1
    32    23    89    1
    33    24    25    1
    34    24    26    1
    35    24    90    1
    36    25    91    1
    37    25    92    1
    38    25    93    1
    39    26    94    1
    40    26    95    1
    41    26    96    1
    42    27    28   ar
    43    28    29   ar
    44    29    30   ar
    45    29    31    1
    46    30    33    1
    47    31    32    1
    48    32    33    1
    49    32    35    1
    50    34    97    1
    51    34    98    1
    52    34    99    1
    53    35    61    1
    54    36    37    1
    55    36    60    1
    56    37    38    1
    57    38    39    1
    58    39    40    1
    59    40    41    1
    60    41    42    1
    61    45   100    1
    62    47   101    1
    63    47   102    1
    64    47   103    1
    65    48   104    1
    66    49   105    1
    67    49   106    1
    68    49   107    1
    69    50   108    1
    70    51    59    1
    71    52   109    1
    72    52   110    1
    73    52   111    1
    74    53    54    1
    75    54    55    2
    76    54    56    1
    77    56   112    1
    78    56   113    1
    79    56   114    1
    80    57   115    1
    81    57   116    1
    82    57   117    1
    83    58   118    1
    84    58   119    1
    85    58   120    1
    86    59   121    1
    87    59   122    1
    88    59   123    1
    89    60    61    2
    90     1    47    1
    91     1    62    1
    92     2    63    1
    93     3    64    1
    94     4    65    1
    95     5     6    1
    96     7     8    2
    97     9    78    1
    98    15    79    1
    99    18    80    1
   100    18    81    1
   101    19    82    1
   102    19    83    1
   103    20    23    1
   104    21    84    1
   105    21    85    1
   106    22    86    1
   107    22    87    1
   108    27    45    1
   109    28    34    1
   110    32    58    1
   111    33    46    2
   112    36    51    1
   113    36    66    1
   114    37    52    1
   115    37    67    1
   116    38    53    1
   117    38    68    1
   118    42    48    1
   119    42    72    1
   120    43    44    2
   121    60    73    1
   122    61    74    1
   123    39    69    1
   124    39    57    1
   125    40    70    1
   126    40    50    1
   127    41    71    1
   128    41    49    1
