@<TRIPOS>MOLECULE
*****
 123 128 0 0 0
SMALL
GASTEIGER

@<TRIPOS>ATOM
     1 C         -5.311102   -0.18554   -1.275487 C.3        1 UNL1     0.0009
     2 C         -6.927571   0.717304   -1.180947 C.2        1 UNL1     -0.0787
     3 C         -8.246442   0.874876   -0.604929 C.2        1 UNL1     -0.0649
     4 C         -9.36186   2.117717   -0.883403 C.2        1 UNL1     -0.0542
     5 C         -10.50603   2.785062   -0.380806 C.2        1 UNL1     0.0115
     6 C         -11.621425   2.727163   0.698945 C.3        1 UNL1     -0.0348
     7 C         -10.870079   4.240401   -0.952161 C.2        1 UNL1     0.2441
     8 O         -11.755602   4.429988   -1.774615 O.2        1 UNL1     -0.2702
     9 N         -10.283782   5.310675   -0.254365 N.am        1 UNL1     -0.2772
     10 C         -9.041352   5.597829   -0.77131 C.2        1 UNL1     0.1049
     11 C         -8.042727   4.851884   -0.334806 C.2        1 UNL1     0.0801
     12 C         -7.83715   6.018795   -2.923058 C.ar        1 UNL1     0.0753
     13 C         -6.885744   5.040555   -2.491223 C.ar        1 UNL1     0.0305
     14 C         -6.887605   4.522318   -1.125031 C.2        1 UNL1     0.0924
     15 N         -7.995592   3.987035   0.692979 N.pl3        1 UNL1     -0.3170
     16 C         -6.628781   3.566075   0.850696 C.3        1 UNL1     0.1275
     17 N         -6.031391   3.697336   -0.529021 N.2        1 UNL1     -0.2557
     18 C         -5.930702   4.611216   1.715606 C.3        1 UNL1     0.0016
     19 C         -6.698137   4.754037   3.020303 C.3        1 UNL1     0.0026
     20 N         -6.731875   3.459783   3.687235 N.3        1 UNL1     -0.3018
     21 C         -7.330328   2.374124   2.907769 C.3        1 UNL1     0.0026
     22 C         -6.541092   2.245197   1.603783 C.3        1 UNL1     0.0016
     23 C         -7.17288   3.546736   5.065131 C.3        1 UNL1     0.0012
     24 C         -8.707665   3.528331   5.141625 C.3        1 UNL1     -0.0339
     25 C         -9.230588   4.526302   6.187886 C.3        1 UNL1     -0.0615
     26 C         -9.300736   3.795263   3.769111 C.3        1 UNL1     -0.0615
     27 C         -7.754798   6.596608   -4.187759 C.ar        1 UNL1     0.1347
     28 C         -6.746524   6.306586   -5.089603 C.ar        1 UNL1     0.0342
     29 C         -5.849457   5.304932   -4.661673 C.ar        1 UNL1     0.1435
     30 C         -5.940763   4.691176   -3.411798 C.ar        1 UNL1     0.0774
     31 O         -4.750083   4.989542   -5.380639 O.3        1 UNL1     -0.4436
     32 C         -3.883183   4.328606   -4.44655 C.3        1 UNL1     0.3143
     33 C         -4.799126   3.801916   -3.360337 C.2        1 UNL1     0.2504
     34 C         -6.449838   7.0638   -6.354001 C.3        1 UNL1     -0.0327
     35 O         -3.328383   3.188251   -5.113663 O.2        1 UNL1     -0.4528
     36 C         0.091482   2.636593   -3.561796 C.3        1 UNL1     0.0854
     37 C         0.472502   2.394373   -2.050613 C.3        1 UNL1     0.0236
     38 C         1.322293   1.06303   -1.772896 C.3        1 UNL1     0.1131
     39 C         0.818899   -0.323297   -2.344701 C.3        1 UNL1     0.0200
     40 C         -0.792221   -0.743644   -2.244506 C.3        1 UNL1     0.0661
     41 C         -1.753465   -0.669775   -0.84874 C.3        1 UNL1     0.0091
     42 C         -3.544788   -0.325133   -0.654352 C.3        1 UNL1     0.0661
     43 C         -8.862132   6.463525   -1.946386 C.2        1 UNL1     0.2131
     44 O         -9.45656   7.522962   -2.029964 O.2        1 UNL1     -0.2851
     45 O         -8.74686   7.506637   -4.547062 O.3        1 UNL1     -0.5056
     46 O         -4.633811   2.849266   -2.631652 O.2        1 UNL1     -0.2836
     47 C         -5.489811   -1.534615   -2.022508 C.3        1 UNL1     -0.0566
     48 O         -3.781737   -1.468289   0.26007 O.3        1 UNL1     -0.3909
     49 C         -1.030713   0.14733   0.198858 C.3        1 UNL1     -0.0577
     50 O         -1.510962   -0.24187   -3.35327 O.3        1 UNL1     -0.3910
     51 O         0.386969   1.581131   -4.44843 O.3        1 UNL1     -0.3753
     52 C         -0.655337   2.877874   -1.081512 C.3        1 UNL1     -0.0564
     53 O         1.964998   1.032689   -0.417043 O.3        1 UNL1     -0.4608
     54 C         1.562626   0.254006   0.63637 C.2        1 UNL1     0.3042
     55 O         1.365554   0.611609   1.797026 O.2        1 UNL1     -0.2512
     56 C         1.294485   -1.175317   0.259743 C.3        1 UNL1     0.0332
     57 C         1.569089   -0.572511   -3.735127 C.3        1 UNL1     -0.0567
     58 C         -2.973046   5.424036   -3.843879 C.3        1 UNL1     0.0210
     59 C         -0.667094   1.241106   -5.347985 C.3        1 UNL1     0.0372
     60 C         -1.32889   3.012187   -3.799777 C.2        1 UNL1     -0.0208
     61 C         -2.196481   2.577129   -4.71452 C.2        1 UNL1     0.0882
     62 H         -4.970038   0.542439   -2.021432 H        1 UNL1     0.0365
     63 H         -6.800732   1.446524   -1.983829 H        1 UNL1     0.0576
     64 H         -8.586056   0.252962   0.226331 H        1 UNL1     0.0615
     65 H         -8.972838   2.622832   -1.771661 H        1 UNL1     0.0622
     66 H         0.688199   3.510008   -3.860327 H        1 UNL1     0.0645
     67 H         1.217218   3.179539   -1.832734 H        1 UNL1     0.0362
     68 H         2.231259   1.30216   -2.345713 H        1 UNL1     0.0741
     69 H         1.306477   -1.12162   -1.801233 H        1 UNL1     0.0359
     70 H         -0.717459   -1.831769   -2.432804 H        1 UNL1     0.0600
     71 H         -1.609385   -1.697035   -0.460236 H        1 UNL1     0.0348
     72 H         -3.404921   -0.620035   -1.704488 H        1 UNL1     0.0602
     73 H         -1.581848   3.834086   -3.177088 H        1 UNL1     0.0628
     74 H         -2.036953   1.705696   -5.35044 H        1 UNL1     0.1022
     75 H         -11.242856   2.23609   1.62769 H        1 UNL1     0.0279
     76 H         -11.986593   3.681821   1.070899 H        1 UNL1     0.0279
     77 H         -12.448084   2.057061   0.420915 H        1 UNL1     0.0279
     78 H         -10.157257   5.053787   0.722404 H        1 UNL1     0.1553
     79 H         -8.65637   3.982877   1.448154 H        1 UNL1     0.1484
     80 H         -4.895451   4.295353   1.89239 H        1 UNL1     0.0317
     81 H         -5.880266   5.575914   1.199404 H        1 UNL1     0.0317
     82 H         -7.714536   5.140535   2.854578 H        1 UNL1     0.0428
     83 H         -6.18441   5.505227   3.621009 H        1 UNL1     0.0428
     84 H         -7.271216   1.397618   3.398436 H        1 UNL1     0.0428
     85 H         -8.406717   2.528983   2.750537 H        1 UNL1     0.0428
     86 H         -6.918904   1.362094   1.122768 H        1 UNL1     0.0317
     87 H         -5.497096   1.988709   1.821456 H        1 UNL1     0.0317
     88 H         -6.785605   2.671847   5.603537 H        1 UNL1     0.0429
     89 H         -6.762392   4.436438   5.559806 H        1 UNL1     0.0429
     90 H         -9.041304   2.522077   5.421537 H        1 UNL1     0.0308
     91 H         -8.965393   4.214321   7.2025 H        1 UNL1     0.0233
     92 H         -8.828883   5.525397   6.003359 H        1 UNL1     0.0233
     93 H         -10.322457   4.625936   6.160859 H        1 UNL1     0.0233
     94 H         -9.539438   2.849673   3.270395 H        1 UNL1     0.0233
     95 H         -10.227265   4.367845   3.867366 H        1 UNL1     0.0233
     96 H         -8.60589   4.35409   3.135968 H        1 UNL1     0.0233
     97 H         -7.293478   7.667606   -6.674814 H        1 UNL1     0.0280
     98 H         -5.6106   7.760911   -6.231639 H        1 UNL1     0.0280
     99 H         -6.206499   6.353505   -7.161071 H        1 UNL1     0.0280
     100 H         -9.121652   7.36155   -5.398004 H        1 UNL1     0.2922
     101 H         -6.133597   -1.391962   -2.890175 H        1 UNL1     0.0236
     102 H         -5.844564   -2.337937   -1.377676 H        1 UNL1     0.0236
     103 H         -4.538598   -1.907092   -2.438017 H        1 UNL1     0.0236
     104 H         -4.147127   -2.201432   -0.272811 H        1 UNL1     0.2098
     105 H         -1.229396   1.215082   0.151495 H        1 UNL1     0.0234
     106 H         -1.149586   -0.214105   1.220211 H        1 UNL1     0.0234
     107 H         0.0   0.0   0.0 H        1 UNL1     0.0234
     108 H         -1.612413   0.720516   -3.221781 H        1 UNL1     0.2098
     109 H         -0.327341   2.885997   -0.032673 H        1 UNL1     0.0234
     110 H         -1.058613   3.861063   -1.346937 H        1 UNL1     0.0234
     111 H         -1.529405   2.213897   -1.114466 H        1 UNL1     0.0234
     112 H         1.838382   -1.427273   -0.655703 H        1 UNL1     0.0342
     113 H         1.544173   -1.864737   1.064851 H        1 UNL1     0.0342
     114 H         0.220488   -1.279955   0.052993 H        1 UNL1     0.0342
     115 H         2.564977   -0.108667   -3.750734 H        1 UNL1     0.0234
     116 H         1.69394   -1.626921   -3.98945 H        1 UNL1     0.0234
     117 H         1.086732   -0.070452   -4.591404 H        1 UNL1     0.0234
     118 H         -3.554654   6.275799   -3.449877 H        1 UNL1     0.0309
     119 H         -2.31117   5.047907   -3.057336 H        1 UNL1     0.0309
     120 H         -2.321405   5.887875   -4.592428 H        1 UNL1     0.0309
     121 H         -0.798825   2.078223   -6.032995 H        1 UNL1     0.0524
     122 H         -0.429326   0.350788   -5.953656 H        1 UNL1     0.0524
     123 H         -1.586074   1.058418   -4.798262 H        1 UNL1     0.0524
@<TRIPOS>BOND
     1     1     2    1
     2     1    42    1
     3     2     3    2
     4     3     4    1
     5     4     5    2
     6     5     7    1
     7     6    75    1
     8     6    76    1
     9     6    77    1
    10     7     9   am
    11     9    10    1
    12    10    11    2
    13    10    43    1
    14    11    14    1
    15    11    15    1
    16    12    13   ar
    17    12    27   ar
    18    12    43    1
    19    13    14    1
    20    13    30   ar
    21    14    17    2
    22    15    16    1
    23    16    17    1
    24    16    18    1
    25    16    22    1
    26    18    19    1
    27    19    20    1
    28    20    21    1
    29    21    22    1
    30    23    24    1
    31    23    88    1
    32    23    89    1
    33    24    25    1
    34    24    26    1
    35    24    90    1
    36    25    91    1
    37    25    92    1
    38    25    93    1
    39    26    94    1
    40    26    95    1
    41    26    96    1
    42    27    28   ar
    43    28    29   ar
    44    29    30   ar
    45    29    31    1
    46    30    33    1
    47    31    32    1
    48    32    33    1
    49    32    35    1
    50    34    97    1
    51    34    98    1
    52    34    99    1
    53    35    61    1
    54    36    37    1
    55    36    60    1
    56    37    38    1
    57    38    39    1
    58    39    40    1
    59    40    41    1
    60    41    42    1
    61    45   100    1
    62    47   101    1
    63    47   102    1
    64    47   103    1
    65    48   104    1
    66    49   105    1
    67    49   106    1
    68    49   107    1
    69    50   108    1
    70    51    59    1
    71    52   109    1
    72    52   110    1
    73    52   111    1
    74    53    54    1
    75    54    55    2
    76    54    56    1
    77    56   112    1
    78    56   113    1
    79    56   114    1
    80    57   115    1
    81    57   116    1
    82    57   117    1
    83    58   118    1
    84    58   119    1
    85    58   120    1
    86    59   121    1
    87    59   122    1
    88    59   123    1
    89    60    61    2
    90     1    47    1
    91     1    62    1
    92     2    63    1
    93     3    64    1
    94     4    65    1
    95     5     6    1
    96     7     8    2
    97     9    78    1
    98    15    79    1
    99    18    80    1
   100    18    81    1
   101    19    82    1
   102    19    83    1
   103    20    23    1
   104    21    84    1
   105    21    85    1
   106    22    86    1
   107    22    87    1
   108    27    45    1
   109    28    34    1
   110    32    58    1
   111    33    46    2
   112    36    51    1
   113    36    66    1
   114    37    52    1
   115    37    67    1
   116    38    53    1
   117    38    68    1
   118    42    48    1
   119    42    72    1
   120    43    44    2
   121    60    73    1
   122    61    74    1
   123    39    69    1
   124    39    57    1
   125    40    70    1
   126    40    50    1
   127    41    71    1
   128    41    49    1
