@<TRIPOS>MOLECULE
*****
 123 128 0 0 0
SMALL
GASTEIGER

@<TRIPOS>ATOM
     1 C         -1.967662   -4.019036   3.160284 C.3        1 UNL1     0.0009
     2 C         -2.328526   -5.832999   3.288162 C.2        1 UNL1     -0.0787
     3 C         -3.270298   -6.931976   3.251246 C.2        1 UNL1     -0.0649
     4 C         -2.938566   -8.589975   3.336973 C.2        1 UNL1     -0.0542
     5 C         -3.433602   -9.888765   3.062818 C.2        1 UNL1     0.0115
     6 C         -4.696068   -10.688882   2.639359 C.3        1 UNL1     -0.0348
     7 C         -2.401761   -11.117134   3.004486 C.2        1 UNL1     0.2441
     8 O         -2.270054   -11.919512   3.918471 O.2        1 UNL1     -0.2702
     9 N         -1.849906   -11.362999   1.735171 N.am        1 UNL1     -0.2772
     10 C         -0.712161   -10.611046   1.552353 C.2        1 UNL1     0.1049
     11 C         -0.895804   -9.363843   1.158673 C.2        1 UNL1     0.0801
     12 C         1.450816   -9.988672   2.64392 C.ar        1 UNL1     0.0753
     13 C         1.10323   -8.626146   2.376871 C.ar        1 UNL1     0.0305
     14 C         -0.01935   -8.278977   1.508343 C.2        1 UNL1     0.0924
     15 N         -2.004351   -8.75665   0.701545 N.pl3        1 UNL1     -0.3170
     16 C         -1.630456   -7.443794   0.246718 C.3        1 UNL1     0.1275
     17 N         -0.420646   -7.087118   1.075491 N.2        1 UNL1     -0.2557
     18 C         -1.133276   -7.587071   -1.188547 C.3        1 UNL1     0.0016
     19 C         -2.221702   -8.251852   -2.016185 C.3        1 UNL1     0.0026
     20 N         -3.422244   -7.42951   -1.957181 N.3        1 UNL1     -0.3018
     21 C         -3.941768   -7.18353   -0.610348 C.3        1 UNL1     0.0026
     22 C         -2.833744   -6.511238   0.202179 C.3        1 UNL1     0.0016
     23 C         -4.415077   -7.809531   -2.942326 C.3        1 UNL1     0.0012
     24 C         -3.797311   -8.739094   -3.998751 C.3        1 UNL1     -0.0339
     25 C         -4.510202   -10.100894   -4.03544 C.3        1 UNL1     -0.0615
     26 C         -3.811783   -8.063729   -5.359064 C.3        1 UNL1     -0.0615
     27 C         2.592515   -10.312684   3.373068 C.ar        1 UNL1     0.1347
     28 C         3.481149   -9.365949   3.850637 C.ar        1 UNL1     0.0342
     29 C         3.092814   -8.029462   3.617904 C.ar        1 UNL1     0.1435
     30 C         1.933191   -7.688973   2.920365 C.ar        1 UNL1     0.0774
     31 O         3.906386   -6.995554   3.924728 O.3        1 UNL1     -0.4436
     32 C         3.411488   -5.899582   3.14064 C.3        1 UNL1     0.3143
     33 C         1.96486   -6.243094   2.84827 C.2        1 UNL1     0.2504
     34 C         4.845581   -9.644035   4.417288 C.3        1 UNL1     -0.0327
     35 O         3.402951   -4.741643   3.984651 O.2        1 UNL1     -0.4528
     36 C         3.962151   -1.773766   1.685283 C.3        1 UNL1     0.0854
     37 C         3.125168   -1.314424   0.4299 C.3        1 UNL1     0.0236
     38 C         2.599262   0.19954   0.485384 C.3        1 UNL1     0.1131
     39 C         1.824233   0.715101   1.764367 C.3        1 UNL1     0.0200
     40 C         0.655747   -0.233457   2.483614 C.3        1 UNL1     0.0661
     41 C         -0.631043   -0.999727   1.686988 C.3        1 UNL1     0.0091
     42 C         -1.483844   -2.582252   2.052704 C.3        1 UNL1     0.0661
     43 C         0.603588   -11.048178   2.042328 C.2        1 UNL1     0.2131
     44 O         0.984378   -12.189709   1.856202 O.2        1 UNL1     -0.2851
     45 O         2.834205   -11.661075   3.627758 O.3        1 UNL1     -0.5056
     46 O         1.04167   -5.491501   2.627633 O.2        1 UNL1     -0.2836
     47 C         -2.44476   -3.282698   4.440973 C.3        1 UNL1     -0.0566
     48 O         -2.845724   -2.010482   1.920503 O.3        1 UNL1     -0.3909
     49 C         -0.367607   -0.974335   0.197878 C.3        1 UNL1     -0.0577
     50 O         1.234988   -1.114798   3.424593 O.3        1 UNL1     -0.3910
     51 O         3.997529   -0.869736   2.766445 O.3        1 UNL1     -0.3753
     52 C         2.251596   -2.477308   -0.14414 C.3        1 UNL1     -0.0564
     53 O         2.12165   0.71833   -0.839406 O.3        1 UNL1     -0.4608
     54 C         2.302501   0.098428   -2.048102 C.2        1 UNL1     0.3042
     55 O         3.101492   0.404478   -2.932288 O.2        1 UNL1     -0.2512
     56 C         1.440002   -1.117168   -2.235551 C.3        1 UNL1     0.0332
     57 C         2.889175   1.43534   2.715856 C.3        1 UNL1     -0.0567
     58 C         4.206229   -5.916779   1.814133 C.3        1 UNL1     0.0210
     59 C         3.847027   -1.467882   4.053083 C.3        1 UNL1     0.0372
     60 C         3.579548   -3.098409   2.245725 C.2        1 UNL1     -0.0208
     61 C         3.394139   -3.481337   3.50974 C.2        1 UNL1     0.0882
     62 H         -0.903238   -4.240136   3.304601 H        1 UNL1     0.0365
     63 H         -1.343198   -6.217994   3.559041 H        1 UNL1     0.0576
     64 H         -4.319556   -6.778112   2.989541 H        1 UNL1     0.0615
     65 H         -1.900787   -8.630775   3.678782 H        1 UNL1     0.0622
     66 H         4.986858   -1.891784   1.305686 H        1 UNL1     0.0645
     67 H         3.869938   -1.258401   -0.382959 H        1 UNL1     0.0362
     68 H         3.564102   0.729162   0.495694 H        1 UNL1     0.0741
     69 H         1.275003   1.609343   1.501525 H        1 UNL1     0.0359
     70 H         0.142613   0.530031   3.099113 H        1 UNL1     0.0600
     71 H         -1.410422   -0.218488   1.782863 H        1 UNL1     0.0348
     72 H         -0.970535   -2.292767   2.981159 H        1 UNL1     0.0602
     73 H         3.579835   -3.820297   1.467183 H        1 UNL1     0.0628
     74 H         3.321971   -2.79824   4.356738 H        1 UNL1     0.1022
     75 H         -4.446695   -11.413684   1.827258 H        1 UNL1     0.0279
     76 H         -5.140871   -11.330007   3.397104 H        1 UNL1     0.0279
     77 H         -5.451571   -10.060822   2.144933 H        1 UNL1     0.0279
     78 H         -2.515499   -11.091698   1.014436 H        1 UNL1     0.1553
     79 H         -2.801974   -9.24932   0.343764 H        1 UNL1     0.1484
     80 H         -0.88206   -6.594156   -1.580691 H        1 UNL1     0.0317
     81 H         -0.213783   -8.18098   -1.226687 H        1 UNL1     0.0317
     82 H         -2.426372   -9.276344   -1.672035 H        1 UNL1     0.0428
     83 H         -1.845662   -8.345905   -3.035399 H        1 UNL1     0.0428
     84 H         -4.795408   -6.498987   -0.587741 H        1 UNL1     0.0428
     85 H         -4.324502   -8.102711   -0.145657 H        1 UNL1     0.0428
     86 H         -3.288855   -6.227161   1.132858 H        1 UNL1     0.0317
     87 H         -2.565787   -5.549996   -0.253134 H        1 UNL1     0.0317
     88 H         -5.218107   -8.351877   -2.426286 H        1 UNL1     0.0429
     89 H         -4.871401   -6.927285   -3.409428 H        1 UNL1     0.0429
     90 H         -2.740551   -8.904547   -3.757719 H        1 UNL1     0.0308
     91 H         -5.562929   -10.006475   -3.752683 H        1 UNL1     0.0233
     92 H         -4.444846   -10.544412   -5.031748 H        1 UNL1     0.0233
     93 H         -4.059887   -10.826686   -3.347488 H        1 UNL1     0.0233
     94 H         -4.45017   -8.622914   -6.051603 H        1 UNL1     0.0233
     95 H         -4.216802   -7.051845   -5.269547 H        1 UNL1     0.0233
     96 H         -2.806757   -8.005162   -5.786219 H        1 UNL1     0.0233
     97 H         4.906146   -9.397943   5.473224 H        1 UNL1     0.0280
     98 H         5.117502   -10.704846   4.339856 H        1 UNL1     0.0280
     99 H         5.597916   -9.044548   3.879049 H        1 UNL1     0.0280
     100 H         3.708339   -11.946712   3.427948 H        1 UNL1     0.2922
     101 H         -1.58562   -3.033461   5.063401 H        1 UNL1     0.0236
     102 H         -3.204574   -3.833631   4.994272 H        1 UNL1     0.0236
     103 H         -2.914028   -2.311819   4.209943 H        1 UNL1     0.0236
     104 H         -3.270259   -2.434961   1.149427 H        1 UNL1     0.2098
     105 H         0.381411   -1.687096   -0.137913 H        1 UNL1     0.0234
     106 H         -1.260235   -1.043348   -0.423717 H        1 UNL1     0.0234
     107 H         0.0   0.0   -0.0 H        1 UNL1     0.0234
     108 H         1.363959   -0.612029   4.251852 H        1 UNL1     0.2098
     109 H         2.791542   -3.072032   -0.894122 H        1 UNL1     0.0234
     110 H         1.853599   -3.140075   0.631799 H        1 UNL1     0.0234
     111 H         1.356526   -2.097244   -0.654384 H        1 UNL1     0.0234
     112 H         1.647784   -1.574612   -3.207619 H        1 UNL1     0.0342
     113 H         1.567387   -1.837989   -1.429304 H        1 UNL1     0.0342
     114 H         0.38924   -0.796152   -2.23212 H        1 UNL1     0.0342
     115 H         3.105122   0.838326   3.612589 H        1 UNL1     0.0234
     116 H         3.84202   1.654339   2.229877 H        1 UNL1     0.0234
     117 H         2.514371   2.370035   3.167308 H        1 UNL1     0.0234
     118 H         4.243001   -4.920405   1.339904 H        1 UNL1     0.0309
     119 H         5.226415   -6.29643   1.929407 H        1 UNL1     0.0309
     120 H         3.734166   -6.543209   1.049378 H        1 UNL1     0.0309
     121 H         2.79564   -1.394578   4.329794 H        1 UNL1     0.0524
     122 H         4.11606   -2.5373   4.051345 H        1 UNL1     0.0524
     123 H         4.463577   -0.950395   4.78258 H        1 UNL1     0.0524
@<TRIPOS>BOND
     1     1     2    1
     2     1    42    1
     3     2     3    2
     4     3     4    1
     5     4     5    2
     6     5     7    1
     7     6    75    1
     8     6    76    1
     9     6    77    1
    10     7     9   am
    11     9    10    1
    12    10    11    2
    13    10    43    1
    14    11    14    1
    15    11    15    1
    16    12    13   ar
    17    12    27   ar
    18    12    43    1
    19    13    14    1
    20    13    30   ar
    21    14    17    2
    22    15    16    1
    23    16    17    1
    24    16    18    1
    25    16    22    1
    26    18    19    1
    27    19    20    1
    28    20    21    1
    29    21    22    1
    30    23    24    1
    31    23    88    1
    32    23    89    1
    33    24    25    1
    34    24    26    1
    35    24    90    1
    36    25    91    1
    37    25    92    1
    38    25    93    1
    39    26    94    1
    40    26    95    1
    41    26    96    1
    42    27    28   ar
    43    28    29   ar
    44    29    30   ar
    45    29    31    1
    46    30    33    1
    47    31    32    1
    48    32    33    1
    49    32    35    1
    50    34    97    1
    51    34    98    1
    52    34    99    1
    53    35    61    1
    54    36    37    1
    55    36    60    1
    56    37    38    1
    57    38    39    1
    58    39    40    1
    59    40    41    1
    60    41    42    1
    61    45   100    1
    62    47   101    1
    63    47   102    1
    64    47   103    1
    65    48   104    1
    66    49   105    1
    67    49   106    1
    68    49   107    1
    69    50   108    1
    70    51    59    1
    71    52   109    1
    72    52   110    1
    73    52   111    1
    74    53    54    1
    75    54    55    2
    76    54    56    1
    77    56   112    1
    78    56   113    1
    79    56   114    1
    80    57   115    1
    81    57   116    1
    82    57   117    1
    83    58   118    1
    84    58   119    1
    85    58   120    1
    86    59   121    1
    87    59   122    1
    88    59   123    1
    89    60    61    2
    90     1    47    1
    91     1    62    1
    92     2    63    1
    93     3    64    1
    94     4    65    1
    95     5     6    1
    96     7     8    2
    97     9    78    1
    98    15    79    1
    99    18    80    1
   100    18    81    1
   101    19    82    1
   102    19    83    1
   103    20    23    1
   104    21    84    1
   105    21    85    1
   106    22    86    1
   107    22    87    1
   108    27    45    1
   109    28    34    1
   110    32    58    1
   111    33    46    2
   112    36    51    1
   113    36    66    1
   114    37    52    1
   115    37    67    1
   116    38    53    1
   117    38    68    1
   118    42    48    1
   119    42    72    1
   120    43    44    2
   121    60    73    1
   122    61    74    1
   123    39    69    1
   124    39    57    1
   125    40    70    1
   126    40    50    1
   127    41    71    1
   128    41    49    1
