@<TRIPOS>MOLECULE
*****
 123 128 0 0 0
SMALL
GASTEIGER

@<TRIPOS>ATOM
     1 C         4.373593   2.452739   -1.581466 C.3        1 UNL1     0.0009
     2 C         5.547678   2.48912   -3.015773 C.2        1 UNL1     -0.0787
     3 C         6.86648   2.255858   -3.565679 C.2        1 UNL1     -0.0649
     4 C         7.35941   2.389566   -5.179835 C.2        1 UNL1     -0.0542
     5 C         8.339769   2.010299   -6.12964 C.2        1 UNL1     0.0115
     6 C         9.729522   1.337551   -6.30087 C.3        1 UNL1     -0.0348
     7 C         8.000303   2.145576   -7.692795 C.2        1 UNL1     0.2441
     8 O         8.420947   3.059757   -8.388393 O.2        1 UNL1     -0.2702
     9 N         7.406049   1.008348   -8.267014 N.am        1 UNL1     -0.2772
     10 C         6.037729   1.061691   -8.132187 C.2        1 UNL1     0.1049
     11 C         5.550442   0.651499   -6.975245 C.2        1 UNL1     0.0801
     12 C         4.068184   2.565876   -8.472264 C.ar        1 UNL1     0.0753
     13 C         3.692827   2.248454   -7.128032 C.ar        1 UNL1     0.0305
     14 C         4.351183   1.17824   -6.382203 C.2        1 UNL1     0.0924
     15 N         6.15059   -0.010192   -5.970997 N.pl3        1 UNL1     -0.3170
     16 C         5.137734   -0.36929   -5.014218 C.3        1 UNL1     0.1275
     17 N         4.07144   0.686023   -5.178711 N.2        1 UNL1     -0.2557
     18 C         4.513723   -1.679011   -5.486388 C.3        1 UNL1     0.0016
     19 C         5.617069   -2.71215   -5.650224 C.3        1 UNL1     0.0026
     20 N         6.290673   -2.88409   -4.370489 N.3        1 UNL1     -0.3018
     21 C         6.870746   -1.66448   -3.804419 C.3        1 UNL1     0.0026
     22 C         5.744191   -0.642198   -3.64408 C.3        1 UNL1     0.0016
     23 C         7.151144   -4.049935   -4.338272 C.3        1 UNL1     0.0012
     24 C         6.313125   -5.338139   -4.341611 C.3        1 UNL1     -0.0339
     25 C         6.984174   -6.447706   -3.515408 C.3        1 UNL1     -0.0615
     26 C         4.906993   -5.045964   -3.847441 C.3        1 UNL1     -0.0615
     27 C         3.35744   3.503485   -9.217818 C.ar        1 UNL1     0.1347
     28 C         2.23441   4.156665   -8.742202 C.ar        1 UNL1     0.0342
     29 C         1.912646   3.864558   -7.399702 C.ar        1 UNL1     0.1435
     30 C         2.637039   2.95454   -6.628765 C.ar        1 UNL1     0.0774
     31 O         0.783823   4.336361   -6.826845 O.3        1 UNL1     -0.4436
     32 C         0.566432   3.48042   -5.695041 C.3        1 UNL1     0.3143
     33 C         1.928886   2.904101   -5.366727 C.2        1 UNL1     0.2504
     34 C         1.279756   4.979547   -9.561715 C.3        1 UNL1     -0.0327
     35 O         0.191063   4.317166   -4.594039 O.2        1 UNL1     -0.4528
     36 C         -2.079006   2.202797   -2.406729 C.3        1 UNL1     0.0854
     37 C         -1.790135   0.811037   -1.723297 C.3        1 UNL1     0.0236
     38 C         -2.022487   0.775901   -0.136942 C.3        1 UNL1     0.1131
     39 C         -1.357196   1.881019   0.778684 C.3        1 UNL1     0.0200
     40 C         0.225168   2.345474   0.527997 C.3        1 UNL1     0.0661
     41 C         1.553248   1.302476   0.366848 C.3        1 UNL1     0.0091
     42 C         3.090539   1.476804   -0.618924 C.3        1 UNL1     0.0661
     43 C         5.185001   1.798245   -9.077014 C.2        1 UNL1     0.2131
     44 O         5.347896   1.680193   -10.277958 O.2        1 UNL1     -0.2851
     45 O         3.816019   3.787962   -10.502425 O.3        1 UNL1     -0.5056
     46 O         2.343933   2.512303   -4.29898 O.2        1 UNL1     -0.2836
     47 C         4.678476   3.620652   -0.605245 C.3        1 UNL1     -0.0566
     48 O         3.985563   1.083089   0.495992 O.3        1 UNL1     -0.3909
     49 C         1.044674   -0.104676   0.146007 C.3        1 UNL1     -0.0577
     50 O         0.298433   3.373963   -0.438732 O.3        1 UNL1     -0.3910
     51 O         -2.332579   3.278232   -1.531188 O.3        1 UNL1     -0.3753
     52 C         -0.59774   0.064197   -2.405479 C.3        1 UNL1     -0.0564
     53 O         -2.085691   -0.61216   0.430173 O.3        1 UNL1     -0.4608
     54 C         -1.447877   -1.036681   1.566353 C.2        1 UNL1     0.3042
     55 O         -0.421325   -1.711042   1.638929 O.2        1 UNL1     -0.2512
     56 C         -2.088215   -0.547199   2.834063 C.3        1 UNL1     0.0332
     57 C         -2.443459   3.031436   1.012663 C.3        1 UNL1     -0.0567
     58 C         -0.354666   2.337433   -6.181549 C.3        1 UNL1     0.0210
     59 C         -1.244345   3.62397   -0.675573 C.3        1 UNL1     0.0372
     60 C         -1.034131   2.663575   -3.361235 C.2        1 UNL1     -0.0208
     61 C         -0.468745   3.862098   -3.511655 C.2        1 UNL1     0.0882
     62 H         3.577172   2.802816   -2.249202 H        1 UNL1     0.0365
     63 H         4.918419   2.946006   -3.782427 H        1 UNL1     0.0576
     64 H         7.659646   1.793076   -2.974218 H        1 UNL1     0.0615
     65 H         6.538423   2.92968   -5.659147 H        1 UNL1     0.0622
     66 H         -2.982836   2.032488   -3.008504 H        1 UNL1     0.0645
     67 H         -2.609184   0.162316   -2.0795 H        1 UNL1     0.0362
     68 H         -3.1032   0.982157   -0.104713 H        1 UNL1     0.0741
     69 H         -1.340417   1.523274   1.799539 H        1 UNL1     0.0359
     70 H         0.429078   2.854525   1.489427 H        1 UNL1     0.0600
     71 H         1.886672   1.249669   1.421835 H        1 UNL1     0.0348
     72 H         2.678157   2.491263   -0.518279 H        1 UNL1     0.0602
     73 H         -0.841171   1.893575   -4.066298 H        1 UNL1     0.0628
     74 H         -0.569039   4.68459   -2.802652 H        1 UNL1     0.1022
     75 H         10.459035   1.751732   -5.563781 H        1 UNL1     0.0279
     76 H         9.778775   0.268949   -6.104061 H        1 UNL1     0.0279
     77 H         10.213179   1.597249   -7.253935 H        1 UNL1     0.0279
     78 H         7.729129   0.172746   -7.783832 H        1 UNL1     0.1553
     79 H         7.006459   -0.523558   -6.075284 H        1 UNL1     0.1484
     80 H         3.766442   -2.004047   -4.752434 H        1 UNL1     0.0317
     81 H         3.982493   -1.540063   -6.43409 H        1 UNL1     0.0317
     82 H         6.329864   -2.425242   -6.437319 H        1 UNL1     0.0428
     83 H         5.150433   -3.637588   -5.989143 H        1 UNL1     0.0428
     84 H         7.300132   -1.804737   -2.80754 H        1 UNL1     0.0428
     85 H         7.711265   -1.293664   -4.407195 H        1 UNL1     0.0428
     86 H         6.175818   0.182639   -3.108048 H        1 UNL1     0.0317
     87 H         4.985625   -1.026142   -2.951071 H        1 UNL1     0.0317
     88 H         7.776802   -4.037673   -5.240323 H        1 UNL1     0.0429
     89 H         7.829572   -4.021111   -3.475904 H        1 UNL1     0.0429
     90 H         6.200655   -5.690798   -5.373694 H        1 UNL1     0.0308
     91 H         7.336379   -6.068146   -2.551568 H        1 UNL1     0.0233
     92 H         6.290857   -7.274392   -3.343621 H        1 UNL1     0.0233
     93 H         7.854425   -6.879251   -4.024593 H        1 UNL1     0.0233
     94 H         4.43695   -5.9649   -3.480763 H        1 UNL1     0.0233
     95 H         4.942633   -4.332086   -3.019752 H        1 UNL1     0.0233
     96 H         4.282073   -4.632172   -4.643821 H        1 UNL1     0.0233
     97 H         1.78214   5.50048   -10.371326 H        1 UNL1     0.0280
     98 H         0.504399   4.363778   -10.035956 H        1 UNL1     0.0280
     99 H         0.792557   5.729897   -8.917737 H        1 UNL1     0.0280
     100 H         4.73709   3.972998   -10.55731 H        1 UNL1     0.2922
     101 H         3.929225   4.403244   -0.722841 H        1 UNL1     0.0236
     102 H         5.692407   4.007207   -0.702721 H        1 UNL1     0.0236
     103 H         4.596142   3.310661   0.449894 H        1 UNL1     0.0236
     104 H         4.906194   1.170636   0.180166 H        1 UNL1     0.2098
     105 H         1.45543   -0.598167   -0.731238 H        1 UNL1     0.0234
     106 H         1.118445   -0.757292   1.015821 H        1 UNL1     0.0234
     107 H         -0.0   0.0   0.0 H        1 UNL1     0.0234
     108 H         1.191869   3.763985   -0.380222 H        1 UNL1     0.2098
     109 H         -0.392626   -0.908044   -1.936025 H        1 UNL1     0.0234
     110 H         -0.735025   -0.071223   -3.483699 H        1 UNL1     0.0234
     111 H         0.336562   0.635754   -2.325801 H        1 UNL1     0.0234
     112 H         -1.520414   -0.902855   3.699197 H        1 UNL1     0.0342
     113 H         -2.187264   0.537124   2.850665 H        1 UNL1     0.0342
     114 H         -3.098478   -0.974715   2.895405 H        1 UNL1     0.0342
     115 H         -2.618446   3.216637   2.081433 H        1 UNL1     0.0234
     116 H         -2.184559   3.986818   0.55194 H        1 UNL1     0.0234
     117 H         -3.45717   2.754418   0.675628 H        1 UNL1     0.0234
     118 H         0.178122   1.625849   -6.83637 H        1 UNL1     0.0309
     119 H         -0.825054   1.786055   -5.361232 H        1 UNL1     0.0309
     120 H         -1.173665   2.697745   -6.813626 H        1 UNL1     0.0309
     121 H         -1.661221   4.095781   0.21379 H        1 UNL1     0.0524
     122 H         -0.674084   2.739598   -0.345838 H        1 UNL1     0.0524
     123 H         -0.570658   4.309025   -1.182465 H        1 UNL1     0.0524
@<TRIPOS>BOND
     1     1     2    1
     2     1    42    1
     3     2     3    2
     4     3     4    1
     5     4     5    2
     6     5     7    1
     7     6    75    1
     8     6    76    1
     9     6    77    1
    10     7     9   am
    11     9    10    1
    12    10    11    2
    13    10    43    1
    14    11    14    1
    15    11    15    1
    16    12    13   ar
    17    12    27   ar
    18    12    43    1
    19    13    14    1
    20    13    30   ar
    21    14    17    2
    22    15    16    1
    23    16    17    1
    24    16    18    1
    25    16    22    1
    26    18    19    1
    27    19    20    1
    28    20    21    1
    29    21    22    1
    30    23    24    1
    31    23    88    1
    32    23    89    1
    33    24    25    1
    34    24    26    1
    35    24    90    1
    36    25    91    1
    37    25    92    1
    38    25    93    1
    39    26    94    1
    40    26    95    1
    41    26    96    1
    42    27    28   ar
    43    28    29   ar
    44    29    30   ar
    45    29    31    1
    46    30    33    1
    47    31    32    1
    48    32    33    1
    49    32    35    1
    50    34    97    1
    51    34    98    1
    52    34    99    1
    53    35    61    1
    54    36    37    1
    55    36    60    1
    56    37    38    1
    57    38    39    1
    58    39    40    1
    59    40    41    1
    60    41    42    1
    61    45   100    1
    62    47   101    1
    63    47   102    1
    64    47   103    1
    65    48   104    1
    66    49   105    1
    67    49   106    1
    68    49   107    1
    69    50   108    1
    70    51    59    1
    71    52   109    1
    72    52   110    1
    73    52   111    1
    74    53    54    1
    75    54    55    2
    76    54    56    1
    77    56   112    1
    78    56   113    1
    79    56   114    1
    80    57   115    1
    81    57   116    1
    82    57   117    1
    83    58   118    1
    84    58   119    1
    85    58   120    1
    86    59   121    1
    87    59   122    1
    88    59   123    1
    89    60    61    2
    90     1    47    1
    91     1    62    1
    92     2    63    1
    93     3    64    1
    94     4    65    1
    95     5     6    1
    96     7     8    2
    97     9    78    1
    98    15    79    1
    99    18    80    1
   100    18    81    1
   101    19    82    1
   102    19    83    1
   103    20    23    1
   104    21    84    1
   105    21    85    1
   106    22    86    1
   107    22    87    1
   108    27    45    1
   109    28    34    1
   110    32    58    1
   111    33    46    2
   112    36    51    1
   113    36    66    1
   114    37    52    1
   115    37    67    1
   116    38    53    1
   117    38    68    1
   118    42    48    1
   119    42    72    1
   120    43    44    2
   121    60    73    1
   122    61    74    1
   123    39    69    1
   124    39    57    1
   125    40    70    1
   126    40    50    1
   127    41    71    1
   128    41    49    1
