@<TRIPOS>MOLECULE
*****
 123 128 0 0 0
SMALL
GASTEIGER

@<TRIPOS>ATOM
     1 C         4.75201   2.628229   -0.714424 C.3        1 UNL1     0.0009
     2 C         6.22092   2.874168   -1.818441 C.2        1 UNL1     -0.0787
     3 C         7.607197   2.610349   -2.141988 C.2        1 UNL1     -0.0649
     4 C         8.463886   3.092126   -3.520513 C.2        1 UNL1     -0.0542
     5 C         9.601086   2.841389   -4.32735 C.2        1 UNL1     0.0115
     6 C         10.934683   2.048692   -4.407809 C.3        1 UNL1     -0.0348
     7 C         9.638523   3.428288   -5.821049 C.2        1 UNL1     0.2441
     8 O         10.278544   4.424386   -6.128762 O.2        1 UNL1     -0.2702
     9 N         9.10131   2.576741   -6.80208 N.am        1 UNL1     -0.2772
     10 C         7.747064   2.784634   -6.929045 C.2        1 UNL1     0.1049
     11 C         6.977775   2.15804   -6.057381 C.2        1 UNL1     0.0801
     12 C         6.034043   4.586713   -7.203639 C.ar        1 UNL1     0.0753
     13 C         5.338169   3.983825   -6.107786 C.ar        1 UNL1     0.0305
     14 C         5.721246   2.673922   -5.585812 C.2        1 UNL1     0.0924
     15 N         7.278319   1.178545   -5.187444 N.pl3        1 UNL1     -0.3170
     16 C         6.048705   0.727111   -4.592037 C.3        1 UNL1     0.1275
     17 N         5.136173   1.927636   -4.653249 N.2        1 UNL1     -0.2557
     18 C         5.445524   -0.3117   -5.532646 C.3        1 UNL1     0.0016
     19 C         6.470566   -1.410139   -5.765686 C.3        1 UNL1     0.0026
     20 N         6.81898   -2.004663   -4.482651 N.3        1 UNL1     -0.3018
     21 C         7.350903   -1.070336   -3.488439 C.3        1 UNL1     0.0026
     22 C         6.303263   0.021918   -3.266348 C.3        1 UNL1     0.0016
     23 C         7.55303   -3.247085   -4.617566 C.3        1 UNL1     0.0012
     24 C         6.636041   -4.359345   -5.150262 C.3        1 UNL1     -0.0339
     25 C         6.753756   -4.50239   -6.67661 C.3        1 UNL1     -0.0615
     26 C         6.938612   -5.667949   -4.441188 C.3        1 UNL1     -0.0615
     27 C         5.589417   5.777312   -7.77364 C.ar        1 UNL1     0.1347
     28 C         4.443756   6.433991   -7.360984 C.ar        1 UNL1     0.0342
     29 C         3.802317   5.848192   -6.248978 C.ar        1 UNL1     0.1435
     30 C         4.256623   4.675358   -5.644587 C.ar        1 UNL1     0.0774
     31 O         2.614324   6.307019   -5.79825 O.3        1 UNL1     -0.4436
     32 C         2.076876   5.22353   -5.024897 C.3        1 UNL1     0.3143
     33 C         3.277959   4.395695   -4.61465 C.2        1 UNL1     0.2504
     34 C         3.770071   7.568746   -8.081109 C.3        1 UNL1     -0.0327
     35 O         1.529064   5.786319   -3.826388 O.2        1 UNL1     -0.4528
     36 C         -1.341747   3.513076   -2.82694 C.3        1 UNL1     0.0854
     37 C         -1.328831   1.964498   -2.528172 C.3        1 UNL1     0.0236
     38 C         -1.918405   1.547492   -1.096302 C.3        1 UNL1     0.1131
     39 C         -1.392588   2.268843   0.209622 C.3        1 UNL1     0.0200
     40 C         0.237333   2.555593   0.418352 C.3        1 UNL1     0.0661
     41 C         1.479056   1.415447   0.229136 C.3        1 UNL1     0.0091
     42 C         3.209351   1.624373   -0.34343 C.3        1 UNL1     0.0661
     43 C         7.193893   3.855516   -7.771404 C.2        1 UNL1     0.2131
     44 O         7.615992   4.034939   -8.899401 O.2        1 UNL1     -0.2851
     45 O         6.349827   6.32141   -8.806681 O.3        1 UNL1     -0.5056
     46 O         3.406091   3.683225   -3.644174 O.2        1 UNL1     -0.2836
     47 C         4.919329   3.444295   0.595546 C.3        1 UNL1     -0.0566
     48 O         3.792359   0.830235   0.764976 O.3        1 UNL1     -0.3909
     49 C         0.922833   0.201467   -0.48105 C.3        1 UNL1     -0.0577
     50 O         0.611182   3.78077   -0.179061 O.3        1 UNL1     -0.3910
     51 O         -1.700855   4.34576   -1.747537 O.3        1 UNL1     -0.3753
     52 C         -0.076335   1.262837   -3.147749 C.3        1 UNL1     -0.0564
     53 O         -2.220356   0.082446   -0.974679 O.3        1 UNL1     -0.4608
     54 C         -2.350391   -0.607568   0.202139 C.2        1 UNL1     0.3042
     55 O         -1.595459   -1.46993   0.649629 O.2        1 UNL1     -0.2512
     56 C         -3.535638   -0.181862   1.021088 C.3        1 UNL1     0.0332
     57 C         -2.407611   3.458447   0.545398 C.3        1 UNL1     -0.0567
     58 C         1.202053   4.389419   -5.989508 C.3        1 UNL1     0.0210
     59 C         -2.314619   5.57879   -2.12009 C.3        1 UNL1     0.0372
     60 C         -0.073415   4.056486   -3.384792 C.2        1 UNL1     -0.0208
     61 C         0.605737   5.16069   -3.071375 C.2        1 UNL1     0.0882
     62 H         4.159342   3.249546   -1.396642 H        1 UNL1     0.0365
     63 H         5.821572   3.599905   -2.529986 H        1 UNL1     0.0576
     64 H         8.205029   1.901899   -1.56423 H        1 UNL1     0.0615
     65 H         7.819727   3.848897   -3.976408 H        1 UNL1     0.0622
     66 H         -2.095455   3.63538   -3.617517 H        1 UNL1     0.0645
     67 H         -2.09461   1.553734   -3.208917 H        1 UNL1     0.0362
     68 H         -2.957913   1.887856   -1.219182 H        1 UNL1     0.0741
     69 H         -1.637524   1.657166   1.067681 H        1 UNL1     0.0359
     70 H         0.257129   2.760722   1.505822 H        1 UNL1     0.0600
     71 H         1.558108   1.041429   1.268761 H        1 UNL1     0.0348
     72 H         2.867713   2.624433   -0.039322 H        1 UNL1     0.0602
     73 H         0.212575   3.479198   -4.228709 H        1 UNL1     0.0628
     74 H         0.412989   5.774033   -2.190525 H        1 UNL1     0.1022
     75 H         11.075286   1.424112   -3.492842 H        1 UNL1     0.0279
     76 H         11.0156   1.315186   -5.206865 H        1 UNL1     0.0279
     77 H         11.819868   2.70001   -4.363827 H        1 UNL1     0.0279
     78 H         9.237689   1.606842   -6.525 H        1 UNL1     0.1553
     79 H         8.091386   0.595493   -5.264291 H        1 UNL1     0.1484
     80 H         4.527106   -0.709496   -5.084278 H        1 UNL1     0.0317
     81 H         5.157003   0.144217   -6.485824 H        1 UNL1     0.0317
     82 H         7.364559   -1.029958   -6.281584 H        1 UNL1     0.0428
     83 H         6.020613   -2.139153   -6.440321 H        1 UNL1     0.0428
     84 H         7.529289   -1.526088   -2.509521 H        1 UNL1     0.0428
     85 H         8.333601   -0.67635   -3.782372 H        1 UNL1     0.0428
     86 H         6.666274   0.608104   -2.442578 H        1 UNL1     0.0317
     87 H         5.378489   -0.419789   -2.875471 H        1 UNL1     0.0317
     88 H         8.364649   -3.087589   -5.339459 H        1 UNL1     0.0429
     89 H         8.01988   -3.539529   -3.668197 H        1 UNL1     0.0429
     90 H         5.595982   -4.117348   -4.901408 H        1 UNL1     0.0308
     91 H         7.784249   -4.71291   -6.978053 H        1 UNL1     0.0233
     92 H         6.103235   -5.300886   -7.041074 H        1 UNL1     0.0233
     93 H         6.446978   -3.592331   -7.206246 H        1 UNL1     0.0233
     94 H         6.427926   -6.496605   -4.943548 H        1 UNL1     0.0233
     95 H         8.013404   -5.868013   -4.468722 H        1 UNL1     0.0233
     96 H         6.611064   -5.641637   -3.398121 H        1 UNL1     0.0233
     97 H         2.86354   7.89024   -7.577052 H        1 UNL1     0.0280
     98 H         4.410875   8.457994   -8.143266 H        1 UNL1     0.0280
     99 H         3.503492   7.25123   -9.102488 H        1 UNL1     0.0280
     100 H         7.257882   6.452577   -8.597268 H        1 UNL1     0.2922
     101 H         4.033444   3.324722   1.218897 H        1 UNL1     0.0236
     102 H         5.157334   4.492859   0.419905 H        1 UNL1     0.0236
     103 H         5.750308   3.067451   1.214945 H        1 UNL1     0.0236
     104 H         4.055705   1.455024   1.468721 H        1 UNL1     0.2098
     105 H         0.720733   0.353096   -1.538394 H        1 UNL1     0.0234
     106 H         1.494934   -0.714397   -0.333335 H        1 UNL1     0.0234
     107 H         0.0   -0.0   0.0 H        1 UNL1     0.0234
     108 H         0.469262   3.689687   -1.141002 H        1 UNL1     0.2098
     109 H         0.865639   1.671207   -2.755791 H        1 UNL1     0.0234
     110 H         -0.085311   0.175005   -3.020134 H        1 UNL1     0.0234
     111 H         -0.030973   1.402834   -4.235999 H        1 UNL1     0.0234
     112 H         -3.579048   -0.766667   1.94492 H        1 UNL1     0.0342
     113 H         -3.523566   0.885862   1.234775 H        1 UNL1     0.0342
     114 H         -4.445913   -0.39559   0.444126 H        1 UNL1     0.0342
     115 H         -3.425203   3.087292   0.729623 H        1 UNL1     0.0234
     116 H         -2.11631   4.060249   1.408548 H        1 UNL1     0.0234
     117 H         -2.580546   4.141995   -0.303599 H        1 UNL1     0.0234
     118 H         0.190441   4.816186   -6.105768 H        1 UNL1     0.0309
     119 H         1.65347   4.263416   -6.978724 H        1 UNL1     0.0309
     120 H         1.008177   3.378827   -5.613713 H        1 UNL1     0.0309
     121 H         -1.592548   6.141005   -2.711601 H        1 UNL1     0.0524
     122 H         -3.21042   5.428114   -2.74529 H        1 UNL1     0.0524
     123 H         -2.593578   6.142478   -1.234352 H        1 UNL1     0.0524
@<TRIPOS>BOND
     1     1     2    1
     2     1    42    1
     3     2     3    2
     4     3     4    1
     5     4     5    2
     6     5     7    1
     7     6    75    1
     8     6    76    1
     9     6    77    1
    10     7     9   am
    11     9    10    1
    12    10    11    2
    13    10    43    1
    14    11    14    1
    15    11    15    1
    16    12    13   ar
    17    12    27   ar
    18    12    43    1
    19    13    14    1
    20    13    30   ar
    21    14    17    2
    22    15    16    1
    23    16    17    1
    24    16    18    1
    25    16    22    1
    26    18    19    1
    27    19    20    1
    28    20    21    1
    29    21    22    1
    30    23    24    1
    31    23    88    1
    32    23    89    1
    33    24    25    1
    34    24    26    1
    35    24    90    1
    36    25    91    1
    37    25    92    1
    38    25    93    1
    39    26    94    1
    40    26    95    1
    41    26    96    1
    42    27    28   ar
    43    28    29   ar
    44    29    30   ar
    45    29    31    1
    46    30    33    1
    47    31    32    1
    48    32    33    1
    49    32    35    1
    50    34    97    1
    51    34    98    1
    52    34    99    1
    53    35    61    1
    54    36    37    1
    55    36    60    1
    56    37    38    1
    57    38    39    1
    58    39    40    1
    59    40    41    1
    60    41    42    1
    61    45   100    1
    62    47   101    1
    63    47   102    1
    64    47   103    1
    65    48   104    1
    66    49   105    1
    67    49   106    1
    68    49   107    1
    69    50   108    1
    70    51    59    1
    71    52   109    1
    72    52   110    1
    73    52   111    1
    74    53    54    1
    75    54    55    2
    76    54    56    1
    77    56   112    1
    78    56   113    1
    79    56   114    1
    80    57   115    1
    81    57   116    1
    82    57   117    1
    83    58   118    1
    84    58   119    1
    85    58   120    1
    86    59   121    1
    87    59   122    1
    88    59   123    1
    89    60    61    2
    90     1    47    1
    91     1    62    1
    92     2    63    1
    93     3    64    1
    94     4    65    1
    95     5     6    1
    96     7     8    2
    97     9    78    1
    98    15    79    1
    99    18    80    1
   100    18    81    1
   101    19    82    1
   102    19    83    1
   103    20    23    1
   104    21    84    1
   105    21    85    1
   106    22    86    1
   107    22    87    1
   108    27    45    1
   109    28    34    1
   110    32    58    1
   111    33    46    2
   112    36    51    1
   113    36    66    1
   114    37    52    1
   115    37    67    1
   116    38    53    1
   117    38    68    1
   118    42    48    1
   119    42    72    1
   120    43    44    2
   121    60    73    1
   122    61    74    1
   123    39    69    1
   124    39    57    1
   125    40    70    1
   126    40    50    1
   127    41    71    1
   128    41    49    1
