@<TRIPOS>MOLECULE
*****
 123 128 0 0 0
SMALL
GASTEIGER

@<TRIPOS>ATOM
     1 C         -0.935462   -2.196333   -4.884605 C.3        1 UNL1     0.0009
     2 C         -0.158689   -2.619237   -6.513964 C.2        1 UNL1     -0.0787
     3 C         -0.006092   -2.377263   -7.933193 C.2        1 UNL1     -0.0649
     4 C         1.078236   -3.114963   -9.003889 C.2        1 UNL1     -0.0542
     5 C         1.731964   -3.001845   -10.255656 C.2        1 UNL1     0.0115
     6 C         1.776956   -2.193096   -11.581259 C.3        1 UNL1     -0.0348
     7 C         3.032205   -3.900284   -10.537028 C.2        1 UNL1     0.2441
     8 O         3.005577   -4.913032   -11.22271 O.2        1 UNL1     -0.2702
     9 N         4.250324   -3.307166   -10.162131 N.am        1 UNL1     -0.2772
     10 C         4.538606   -3.592216   -8.847231 C.2        1 UNL1     0.1049
     11 C         3.960515   -2.821081   -7.944245 C.2        1 UNL1     0.0801
     12 C         4.669543   -5.478104   -7.209057 C.ar        1 UNL1     0.0753
     13 C         3.858954   -4.677914   -6.34231 C.ar        1 UNL1     0.0305
     14 C         3.58891   -3.271049   -6.630162 C.2        1 UNL1     0.0924
     15 N         3.294937   -1.663243   -8.095721 N.pl3        1 UNL1     -0.3170
     16 C         3.015783   -1.142022   -6.783984 C.3        1 UNL1     0.1275
     17 N         2.950025   -2.362456   -5.89858 N.2        1 UNL1     -0.2557
     18 C         4.247146   -0.360146   -6.336639 C.3        1 UNL1     0.0016
     19 C         4.555565   0.700722   -7.38116 C.3        1 UNL1     0.0026
     20 N         3.399153   1.575893   -7.514626 N.3        1 UNL1     -0.3018
     21 C         2.150713   0.904762   -7.882524 C.3        1 UNL1     0.0026
     22 C         1.857752   -0.15339   -6.81745 C.3        1 UNL1     0.0016
     23 C         3.690956   2.786933   -8.255489 C.3        1 UNL1     0.0012
     24 C         3.221173   4.023401   -7.473051 C.3        1 UNL1     -0.0339
     25 C         2.342605   4.93839   -8.341941 C.3        1 UNL1     -0.0615
     26 C         2.500865   3.595381   -6.20627 C.3        1 UNL1     -0.0615
     27 C         5.022069   -6.781692   -6.867734 C.ar        1 UNL1     0.1347
     28 C         4.658333   -7.377373   -5.673201 C.ar        1 UNL1     0.0342
     29 C         3.819848   -6.588105   -4.857627 C.ar        1 UNL1     0.1435
     30 C         3.428754   -5.293895   -5.203008 C.ar        1 UNL1     0.0774
     31 O         3.470268   -6.984271   -3.614303 O.3        1 UNL1     -0.4436
     32 C         3.052316   -5.780004   -2.954053 C.3        1 UNL1     0.3143
     33 C         2.653844   -4.834635   -4.069271 C.2        1 UNL1     0.2504
     34 C         5.203694   -8.6687   -5.129917 C.3        1 UNL1     -0.0327
     35 O         1.859657   -6.087604   -2.221797 O.2        1 UNL1     -0.4528
     36 C         1.855788   -3.767919   0.782722 C.3        1 UNL1     0.0854
     37 C         1.911824   -2.192294   0.825018 C.3        1 UNL1     0.0236
     38 C         0.719807   -1.495268   1.640489 C.3        1 UNL1     0.1131
     39 C         -0.78005   -1.890623   1.330014 C.3        1 UNL1     0.0200
     40 C         -1.300615   -2.058696   -0.245803 C.3        1 UNL1     0.0661
     41 C         -1.059054   -0.938828   -1.496865 C.3        1 UNL1     0.0091
     42 C         -0.826339   -1.198482   -3.297927 C.3        1 UNL1     0.0661
     43 C         5.196905   -4.843256   -8.442392 C.2        1 UNL1     0.2131
     44 O         6.17586   -5.248738   -9.042367 O.2        1 UNL1     -0.2851
     45 O         5.775217   -7.508189   -7.78774 O.3        1 UNL1     -0.5056
     46 O         1.85902   -3.921965   -4.035478 O.2        1 UNL1     -0.2836
     47 C         -2.404085   -2.697562   -4.841069 C.3        1 UNL1     -0.0566
     48 O         -1.807022   -0.157611   -3.690312 O.3        1 UNL1     -0.3909
     49 C         -0.017665   0.066265   -1.057788 C.3        1 UNL1     -0.0577
     50 O         -1.057869   -3.369048   -0.716731 O.3        1 UNL1     -0.3910
     51 O         0.687891   -4.357152   1.308317 O.3        1 UNL1     -0.3753
     52 C         2.467905   -1.593879   -0.508257 C.3        1 UNL1     -0.0564
     53 O         0.977044   -0.052628   1.964445 O.3        1 UNL1     -0.4608
     54 C         0.338551   0.66968   2.938369 C.2        1 UNL1     0.3042
     55 O         -0.85568   0.961178   2.990147 O.2        1 UNL1     -0.2512
     56 C         1.23692   1.07714   4.071339 C.3        1 UNL1     0.0332
     57 C         -1.209222   -3.017404   2.380895 C.3        1 UNL1     -0.0567
     58 C         4.303727   -5.213873   -2.243423 C.3        1 UNL1     0.0210
     59 C         -0.081769   -5.104691   0.367745 C.3        1 UNL1     0.0372
     60 C         2.072214   -4.368995   -0.561536 C.2        1 UNL1     -0.0208
     61 C         1.41775   -5.349217   -1.185704 C.2        1 UNL1     0.0882
     62 H         -0.324732   -2.975586   -4.412923 H        1 UNL1     0.0365
     63 H         0.426623   -3.49893   -6.238246 H        1 UNL1     0.0576
     64 H         -0.497693   -1.535794   -8.426513 H        1 UNL1     0.0615
     65 H         1.449085   -3.978652   -8.445325 H        1 UNL1     0.0622
     66 H         2.707374   -4.09101   1.397912 H        1 UNL1     0.0645
     67 H         2.778569   -1.972138   1.472199 H        1 UNL1     0.0362
     68 H         0.925213   -1.895878   2.644901 H        1 UNL1     0.0741
     69 H         -1.430664   -1.1159   1.713307 H        1 UNL1     0.0359
     70 H         -2.39572   -2.01917   -0.090101 H        1 UNL1     0.0600
     71 H         -1.988215   -0.342875   -1.404897 H        1 UNL1     0.0348
     72 H         -1.288425   -2.120333   -2.915851 H        1 UNL1     0.0602
     73 H         2.968049   -3.979976   -0.97794 H        1 UNL1     0.0628
     74 H         0.463707   -5.76152   -0.855483 H        1 UNL1     0.1022
     75 H         0.924955   -1.472863   -11.630171 H        1 UNL1     0.0279
     76 H         2.639248   -1.546075   -11.725779 H        1 UNL1     0.0279
     77 H         1.584766   -2.816711   -12.466622 H        1 UNL1     0.0279
     78 H         4.178743   -2.295416   -10.247666 H        1 UNL1     0.1553
     79 H         3.371363   -1.07902   -8.907987 H        1 UNL1     0.1484
     80 H         4.048654   0.089047   -5.356031 H        1 UNL1     0.0317
     81 H         5.107735   -1.025394   -6.208258 H        1 UNL1     0.0317
     82 H         4.826789   0.252894   -8.348527 H        1 UNL1     0.0428
     83 H         5.437875   1.245161   -7.043276 H        1 UNL1     0.0428
     84 H         1.282605   1.571064   -7.898057 H        1 UNL1     0.0428
     85 H         2.191389   0.495768   -8.901537 H        1 UNL1     0.0428
     86 H         0.877472   -0.529371   -7.044775 H        1 UNL1     0.0317
     87 H         1.725366   0.325733   -5.839692 H        1 UNL1     0.0317
     88 H         4.778611   2.851118   -8.39032 H        1 UNL1     0.0429
     89 H         3.243767   2.758932   -9.257493 H        1 UNL1     0.0429
     90 H         4.097466   4.592935   -7.141457 H        1 UNL1     0.0308
     91 H         1.487305   4.394382   -8.753788 H        1 UNL1     0.0233
     92 H         1.9802   5.790348   -7.761907 H        1 UNL1     0.0233
     93 H         2.891675   5.359226   -9.192973 H        1 UNL1     0.0233
     94 H         1.456394   3.92404   -6.236279 H        1 UNL1     0.0233
     95 H         2.508901   2.505052   -6.12213 H        1 UNL1     0.0233
     96 H         2.971811   4.021601   -5.316037 H        1 UNL1     0.0233
     97 H         5.444118   -9.373894   -5.919935 H        1 UNL1     0.0280
     98 H         6.133948   -8.520403   -4.566098 H        1 UNL1     0.0280
     99 H         4.456874   -9.134571   -4.466353 H        1 UNL1     0.0280
     100 H         6.05481   -7.016655   -8.539966 H        1 UNL1     0.2922
     101 H         -2.826644   -2.685425   -5.845536 H        1 UNL1     0.0236
     102 H         -3.022803   -2.150579   -4.130449 H        1 UNL1     0.0236
     103 H         -2.472929   -3.750719   -4.521202 H        1 UNL1     0.0236
     104 H         -2.245214   -0.459263   -4.510047 H        1 UNL1     0.2098
     105 H         0.986175   -0.139415   -1.420848 H        1 UNL1     0.0234
     106 H         -0.281501   1.106944   -1.245686 H        1 UNL1     0.0234
     107 H         0.0   0.0   0.0 H        1 UNL1     0.0234
     108 H         -0.299783   -3.722663   -0.212717 H        1 UNL1     0.2098
     109 H         3.096615   -0.709   -0.33672 H        1 UNL1     0.0234
     110 H         3.019205   -2.323852   -1.110713 H        1 UNL1     0.0234
     111 H         1.658252   -1.25939   -1.170469 H        1 UNL1     0.0234
     112 H         2.278705   0.859605   3.816961 H        1 UNL1     0.0342
     113 H         1.11046   2.125446   4.337622 H        1 UNL1     0.0342
     114 H         0.972669   0.475768   4.95207 H        1 UNL1     0.0342
     115 H         -0.866977   -2.779385   3.397459 H        1 UNL1     0.0234
     116 H         -2.285848   -3.192253   2.429405 H        1 UNL1     0.0234
     117 H         -0.713741   -3.98882   2.211214 H        1 UNL1     0.0234
     118 H         4.918152   -4.592477   -2.918223 H        1 UNL1     0.0309
     119 H         4.063325   -4.636767   -1.344892 H        1 UNL1     0.0309
     120 H         4.996573   -5.999553   -1.922835 H        1 UNL1     0.0309
     121 H         -0.991759   -5.430274   0.871005 H        1 UNL1     0.0524
     122 H         -0.382644   -4.49822   -0.502717 H        1 UNL1     0.0524
     123 H         0.482532   -5.96526   0.019781 H        1 UNL1     0.0524
@<TRIPOS>BOND
     1     1     2    1
     2     1    42    1
     3     2     3    2
     4     3     4    1
     5     4     5    2
     6     5     7    1
     7     6    75    1
     8     6    76    1
     9     6    77    1
    10     7     9   am
    11     9    10    1
    12    10    11    2
    13    10    43    1
    14    11    14    1
    15    11    15    1
    16    12    13   ar
    17    12    27   ar
    18    12    43    1
    19    13    14    1
    20    13    30   ar
    21    14    17    2
    22    15    16    1
    23    16    17    1
    24    16    18    1
    25    16    22    1
    26    18    19    1
    27    19    20    1
    28    20    21    1
    29    21    22    1
    30    23    24    1
    31    23    88    1
    32    23    89    1
    33    24    25    1
    34    24    26    1
    35    24    90    1
    36    25    91    1
    37    25    92    1
    38    25    93    1
    39    26    94    1
    40    26    95    1
    41    26    96    1
    42    27    28   ar
    43    28    29   ar
    44    29    30   ar
    45    29    31    1
    46    30    33    1
    47    31    32    1
    48    32    33    1
    49    32    35    1
    50    34    97    1
    51    34    98    1
    52    34    99    1
    53    35    61    1
    54    36    37    1
    55    36    60    1
    56    37    38    1
    57    38    39    1
    58    39    40    1
    59    40    41    1
    60    41    42    1
    61    45   100    1
    62    47   101    1
    63    47   102    1
    64    47   103    1
    65    48   104    1
    66    49   105    1
    67    49   106    1
    68    49   107    1
    69    50   108    1
    70    51    59    1
    71    52   109    1
    72    52   110    1
    73    52   111    1
    74    53    54    1
    75    54    55    2
    76    54    56    1
    77    56   112    1
    78    56   113    1
    79    56   114    1
    80    57   115    1
    81    57   116    1
    82    57   117    1
    83    58   118    1
    84    58   119    1
    85    58   120    1
    86    59   121    1
    87    59   122    1
    88    59   123    1
    89    60    61    2
    90     1    47    1
    91     1    62    1
    92     2    63    1
    93     3    64    1
    94     4    65    1
    95     5     6    1
    96     7     8    2
    97     9    78    1
    98    15    79    1
    99    18    80    1
   100    18    81    1
   101    19    82    1
   102    19    83    1
   103    20    23    1
   104    21    84    1
   105    21    85    1
   106    22    86    1
   107    22    87    1
   108    27    45    1
   109    28    34    1
   110    32    58    1
   111    33    46    2
   112    36    51    1
   113    36    66    1
   114    37    52    1
   115    37    67    1
   116    38    53    1
   117    38    68    1
   118    42    48    1
   119    42    72    1
   120    43    44    2
   121    60    73    1
   122    61    74    1
   123    39    69    1
   124    39    57    1
   125    40    70    1
   126    40    50    1
   127    41    71    1
   128    41    49    1
