@<TRIPOS>MOLECULE
*****
 123 128 0 0 0
SMALL
GASTEIGER

@<TRIPOS>ATOM
     1 C         -0.798949   -5.1889   -0.126601 C.3        1 UNL1     0.0009
     2 C         -1.675678   -6.561614   -1.01206 C.2        1 UNL1     -0.0787
     3 C         -2.8515   -7.384761   -1.201578 C.2        1 UNL1     -0.0649
     4 C         -3.124348   -8.549346   -2.399767 C.2        1 UNL1     -0.0542
     5 C         -4.111161   -9.292809   -3.092977 C.2        1 UNL1     0.0115
     6 C         -5.619184   -9.665245   -3.114924 C.3        1 UNL1     -0.0348
     7 C         -3.723618   -9.987416   -4.487366 C.2        1 UNL1     0.2441
     8 O         -3.485677   -11.182823   -4.59182 O.2        1 UNL1     -0.2702
     9 N         -3.930232   -9.184671   -5.622735 N.am        1 UNL1     -0.2772
     10 C         -2.814968   -8.421024   -5.880326 C.2        1 UNL1     0.1049
     11 C         -2.704197   -7.300976   -5.189353 C.2        1 UNL1     0.0801
     12 C         -0.329574   -8.559914   -6.127028 C.ar        1 UNL1     0.0753
     13 C         -0.255533   -7.468836   -5.203624 C.ar        1 UNL1     0.0305
     14 C         -1.445809   -6.719605   -4.80746 C.2        1 UNL1     0.0924
     15 N         -3.605839   -6.668561   -4.418885 N.pl3        1 UNL1     -0.3170
     16 C         -3.042306   -5.402417   -4.032149 C.3        1 UNL1     0.1275
     17 N         -1.550688   -5.631522   -4.04983 N.2        1 UNL1     -0.2557
     18 C         -3.332519   -4.415317   -5.158697 C.3        1 UNL1     0.0016
     19 C         -4.832522   -4.385854   -5.405095 C.3        1 UNL1     0.0026
     20 N         -5.501027   -3.987351   -4.174109 N.3        1 UNL1     -0.3018
     21 C         -5.232886   -4.842584   -3.016074 C.3        1 UNL1     0.0026
     22 C         -3.720983   -4.854003   -2.783876 C.3        1 UNL1     0.0016
     23 C         -6.893464   -3.639356   -4.375758 C.3        1 UNL1     0.0012
     24 C         -7.047097   -2.122435   -4.568384 C.3        1 UNL1     -0.0339
     25 C         -8.526811   -1.705223   -4.589295 C.3        1 UNL1     -0.0615
     26 C         -6.272068   -1.379881   -3.493804 C.3        1 UNL1     -0.0615
     27 C         0.821651   -9.190854   -6.592551 C.ar        1 UNL1     0.1347
     28 C         2.099111   -8.795124   -6.238229 C.ar        1 UNL1     0.0342
     29 C         2.146051   -7.750799   -5.290418 C.ar        1 UNL1     0.1435
     30 C         1.000186   -7.133178   -4.787668 C.ar        1 UNL1     0.0774
     31 O         3.315603   -7.179913   -4.928142 O.3        1 UNL1     -0.4436
     32 C         2.941749   -5.913982   -4.363762 C.3        1 UNL1     0.3143
     33 C         1.50255   -6.086689   -3.922072 C.2        1 UNL1     0.2504
     34 C         3.375855   -9.254679   -6.885402 C.3        1 UNL1     -0.0327
     35 O         3.723095   -5.729312   -3.176897 O.2        1 UNL1     -0.4528
     36 C         4.188959   -1.980063   -2.81057 C.3        1 UNL1     0.0854
     37 C         3.097854   -0.84589   -2.707306 C.3        1 UNL1     0.0236
     38 C         3.224468   0.098307   -1.417266 C.3        1 UNL1     0.1131
     39 C         3.347345   -0.549325   0.020699 C.3        1 UNL1     0.0200
     40 C         2.379682   -1.837545   0.452618 C.3        1 UNL1     0.0661
     41 C         0.695268   -1.920298   0.269548 C.3        1 UNL1     0.0091
     42 C         -0.396138   -3.356069   -0.066303 C.3        1 UNL1     0.0661
     43 C         -1.668723   -8.939334   -6.641792 C.2        1 UNL1     0.2131
     44 O         -1.842199   -9.54887   -7.681556 O.2        1 UNL1     -0.2851
     45 O         0.660163   -10.274161   -7.453832 O.3        1 UNL1     -0.5056
     46 O         0.91044   -5.506775   -3.039485 O.2        1 UNL1     -0.2836
     47 C         -0.353259   -5.655934   1.285214 C.3        1 UNL1     -0.0566
     48 O         -1.371417   -3.008041   0.995217 O.3        1 UNL1     -0.3909
     49 C         0.248435   -0.802652   -0.646258 C.3        1 UNL1     -0.0577
     50 O         2.969032   -3.060783   0.060089 O.3        1 UNL1     -0.3910
     51 O         5.023939   -2.135912   -1.685425 O.3        1 UNL1     -0.3753
     52 C         1.713143   -1.318737   -3.258615 C.3        1 UNL1     -0.0564
     53 O         2.417696   1.360012   -1.514974 O.3        1 UNL1     -0.4608
     54 C         1.052098   1.438988   -1.432301 C.2        1 UNL1     0.3042
     55 O         0.239431   0.532444   -1.610031 O.2        1 UNL1     -0.2512
     56 C         0.551876   2.794578   -1.021365 C.3        1 UNL1     0.0332
     57 C         4.903484   -0.632436   0.380836 C.3        1 UNL1     -0.0567
     58 C         2.989011   -4.888404   -5.520259 C.3        1 UNL1     0.0210
     59 C         6.403221   -1.855118   -1.919096 C.3        1 UNL1     0.0372
     60 C         3.661783   -3.331303   -3.144333 C.2        1 UNL1     -0.0208
     61 C         3.94521   -4.523854   -2.618753 C.2        1 UNL1     0.0882
     62 H         0.061278   -5.335659   -0.790816 H        1 UNL1     0.0365
     63 H         -0.880906   -6.92005   -1.669579 H        1 UNL1     0.0576
     64 H         -3.775916   -7.197939   -0.650524 H        1 UNL1     0.0615
     65 H         -2.133413   -8.717562   -2.830154 H        1 UNL1     0.0622
     66 H         4.81653   -1.682593   -3.662457 H        1 UNL1     0.0645
     67 H         3.361639   -0.145443   -3.518695 H        1 UNL1     0.0362
     68 H         4.206805   0.552644   -1.617552 H        1 UNL1     0.0741
     69 H         3.09309   0.197048   0.761434 H        1 UNL1     0.0359
     70 H         2.505272   -1.810204   1.551954 H        1 UNL1     0.0600
     71 H         0.374328   -1.533485   1.25663 H        1 UNL1     0.0348
     72 H         0.545596   -3.774309   0.317791 H        1 UNL1     0.0602
     73 H         3.05669   -3.265049   -4.01423 H        1 UNL1     0.0628
     74 H         4.508585   -4.673393   -1.697078 H        1 UNL1     0.1022
     75 H         -5.782914   -10.665119   -2.645372 H        1 UNL1     0.0279
     76 H         -6.285411   -9.025023   -2.541054 H        1 UNL1     0.0279
     77 H         -5.999664   -9.838548   -4.132225 H        1 UNL1     0.0279
     78 H         -4.705757   -8.547248   -5.454423 H        1 UNL1     0.1553
     79 H         -4.594796   -6.830019   -4.472059 H        1 UNL1     0.1484
     80 H         -2.953928   -3.426248   -4.873783 H        1 UNL1     0.0317
     81 H         -2.804687   -4.700985   -6.074906 H        1 UNL1     0.0317
     82 H         -5.205707   -5.357221   -5.761595 H        1 UNL1     0.0428
     83 H         -5.017055   -3.677269   -6.21312 H        1 UNL1     0.0428
     84 H         -5.681817   -4.476849   -2.08736 H        1 UNL1     0.0428
     85 H         -5.660652   -5.84684   -3.141778 H        1 UNL1     0.0428
     86 H         -3.574356   -5.37658   -1.856837 H        1 UNL1     0.0317
     87 H         -3.36831   -3.839406   -2.561814 H        1 UNL1     0.0317
     88 H         -7.243423   -4.144402   -5.285566 H        1 UNL1     0.0429
     89 H         -7.518214   -3.998676   -3.547899 H        1 UNL1     0.0429
     90 H         -6.589255   -1.83324   -5.521778 H        1 UNL1     0.0308
     91 H         -9.16236   -2.470749   -4.134158 H        1 UNL1     0.0233
     92 H         -8.669157   -0.759962   -4.060306 H        1 UNL1     0.0233
     93 H         -8.901233   -1.545146   -5.607636 H        1 UNL1     0.0233
     94 H         -5.758359   -2.091678   -2.838607 H        1 UNL1     0.0233
     95 H         -5.515178   -0.738927   -3.954517 H        1 UNL1     0.0233
     96 H         -6.933118   -0.760882   -2.88076 H        1 UNL1     0.0233
     97 H         4.202264   -8.580792   -6.680088 H        1 UNL1     0.0280
     98 H         3.693654   -10.239981   -6.520106 H        1 UNL1     0.0280
     99 H         3.237277   -9.308812   -7.97763 H        1 UNL1     0.0280
     100 H         1.280353   -10.970606   -7.327532 H        1 UNL1     0.2922
     101 H         -0.80008   -5.012972   2.043242 H        1 UNL1     0.0236
     102 H         0.72881   -5.723702   1.392536 H        1 UNL1     0.0236
     103 H         -0.723102   -6.667359   1.522759 H        1 UNL1     0.0236
     104 H         -1.087076   -2.160889   1.390761 H        1 UNL1     0.2098
     105 H         1.01429   -0.451753   -1.333388 H        1 UNL1     0.0234
     106 H         -0.680048   -0.997332   -1.182864 H        1 UNL1     0.0234
     107 H         -0.0   0.0   0.0 H        1 UNL1     0.0234
     108 H         2.448273   -3.778306   0.469647 H        1 UNL1     0.2098
     109 H         1.064189   -0.475055   -3.532058 H        1 UNL1     0.0234
     110 H         1.799615   -2.004816   -4.108063 H        1 UNL1     0.0234
     111 H         1.153576   -1.893164   -2.508373 H        1 UNL1     0.0234
     112 H         1.15546   3.573789   -1.496614 H        1 UNL1     0.0342
     113 H         -0.50514   2.926873   -1.247327 H        1 UNL1     0.0342
     114 H         0.674261   2.890231   0.06631 H        1 UNL1     0.0342
     115 H         5.51633   -0.852261   -0.504198 H        1 UNL1     0.0234
     116 H         5.302148   0.274766   0.839202 H        1 UNL1     0.0234
     117 H         5.158975   -1.484558   1.033947 H        1 UNL1     0.0234
     118 H         2.235192   -5.104828   -6.297384 H        1 UNL1     0.0309
     119 H         2.868479   -3.854182   -5.182533 H        1 UNL1     0.0309
     120 H         3.935513   -4.919198   -6.070978 H        1 UNL1     0.0309
     121 H         6.555885   -0.789452   -1.750557 H        1 UNL1     0.0524
     122 H         7.064485   -2.399178   -1.224282 H        1 UNL1     0.0524
     123 H         6.672318   -2.115669   -2.9388 H        1 UNL1     0.0524
@<TRIPOS>BOND
     1     1     2    1
     2     1    42    1
     3     2     3    2
     4     3     4    1
     5     4     5    2
     6     5     7    1
     7     6    75    1
     8     6    76    1
     9     6    77    1
    10     7     9   am
    11     9    10    1
    12    10    11    2
    13    10    43    1
    14    11    14    1
    15    11    15    1
    16    12    13   ar
    17    12    27   ar
    18    12    43    1
    19    13    14    1
    20    13    30   ar
    21    14    17    2
    22    15    16    1
    23    16    17    1
    24    16    18    1
    25    16    22    1
    26    18    19    1
    27    19    20    1
    28    20    21    1
    29    21    22    1
    30    23    24    1
    31    23    88    1
    32    23    89    1
    33    24    25    1
    34    24    26    1
    35    24    90    1
    36    25    91    1
    37    25    92    1
    38    25    93    1
    39    26    94    1
    40    26    95    1
    41    26    96    1
    42    27    28   ar
    43    28    29   ar
    44    29    30   ar
    45    29    31    1
    46    30    33    1
    47    31    32    1
    48    32    33    1
    49    32    35    1
    50    34    97    1
    51    34    98    1
    52    34    99    1
    53    35    61    1
    54    36    37    1
    55    36    60    1
    56    37    38    1
    57    38    39    1
    58    39    40    1
    59    40    41    1
    60    41    42    1
    61    45   100    1
    62    47   101    1
    63    47   102    1
    64    47   103    1
    65    48   104    1
    66    49   105    1
    67    49   106    1
    68    49   107    1
    69    50   108    1
    70    51    59    1
    71    52   109    1
    72    52   110    1
    73    52   111    1
    74    53    54    1
    75    54    55    2
    76    54    56    1
    77    56   112    1
    78    56   113    1
    79    56   114    1
    80    57   115    1
    81    57   116    1
    82    57   117    1
    83    58   118    1
    84    58   119    1
    85    58   120    1
    86    59   121    1
    87    59   122    1
    88    59   123    1
    89    60    61    2
    90     1    47    1
    91     1    62    1
    92     2    63    1
    93     3    64    1
    94     4    65    1
    95     5     6    1
    96     7     8    2
    97     9    78    1
    98    15    79    1
    99    18    80    1
   100    18    81    1
   101    19    82    1
   102    19    83    1
   103    20    23    1
   104    21    84    1
   105    21    85    1
   106    22    86    1
   107    22    87    1
   108    27    45    1
   109    28    34    1
   110    32    58    1
   111    33    46    2
   112    36    51    1
   113    36    66    1
   114    37    52    1
   115    37    67    1
   116    38    53    1
   117    38    68    1
   118    42    48    1
   119    42    72    1
   120    43    44    2
   121    60    73    1
   122    61    74    1
   123    39    69    1
   124    39    57    1
   125    40    70    1
   126    40    50    1
   127    41    71    1
   128    41    49    1
