@<TRIPOS>MOLECULE
*****
 123 128 0 0 0
SMALL
GASTEIGER

@<TRIPOS>ATOM
     1 C         5.010116   2.057212   0.816018 C.3        1 UNL1     0.0009
     2 C         6.435335   2.974827   0.065171 C.2        1 UNL1     -0.0787
     3 C         7.754649   2.975555   -0.531029 C.2        1 UNL1     -0.0649
     4 C         8.58989   4.283378   -1.208027 C.2        1 UNL1     -0.0542
     5 C         9.637698   4.664841   -2.081905 C.2        1 UNL1     0.0115
     6 C         10.848523   4.13523   -2.898446 C.3        1 UNL1     -0.0348
     7 C         9.66962   6.166908   -2.647381 C.2        1 UNL1     0.2441
     8 O         10.41749   7.028418   -2.205774 O.2        1 UNL1     -0.2702
     9 N         8.971328   6.357534   -3.852455 N.am        1 UNL1     -0.2772
     10 C         7.651429   6.654022   -3.600895 C.2        1 UNL1     0.1049
     11 C         6.855558   5.623737   -3.378805 C.2        1 UNL1     0.0801
     12 C         6.178654   8.137168   -2.226651 C.ar        1 UNL1     0.0753
     13 C         5.470965   6.952038   -1.848166 C.ar        1 UNL1     0.0305
     14 C         5.706102   5.674107   -2.516488 C.2        1 UNL1     0.0924
     15 N         7.071849   4.309884   -3.561933 N.pl3        1 UNL1     -0.3170
     16 C         5.82823   3.623637   -3.3323 C.3        1 UNL1     0.1275
     17 N         5.080123   4.510196   -2.366861 N.2        1 UNL1     -0.2557
     18 C         5.042172   3.662742   -4.639314 C.3        1 UNL1     0.0016
     19 C         5.898835   3.058149   -5.740307 C.3        1 UNL1     0.0026
     20 N         6.236142   1.689954   -5.372485 N.3        1 UNL1     -0.3018
     21 C         6.940851   1.544777   -4.097072 C.3        1 UNL1     0.0026
     22 C         6.0604   2.154482   -3.004845 C.3        1 UNL1     0.0016
     23 C         6.791231   0.930161   -6.474861 C.3        1 UNL1     0.0012
     24 C         5.708446   0.634807   -7.524669 C.3        1 UNL1     -0.0339
     25 C         5.809419   1.594165   -8.721955 C.3        1 UNL1     -0.0615
     26 C         5.79048   -0.817002   -7.96319 C.3        1 UNL1     -0.0615
     27 C         5.864202   9.374491   -1.669633 C.ar        1 UNL1     0.1347
     28 C         4.839797   9.557172   -0.757892 C.ar        1 UNL1     0.0342
     29 C         4.18913   8.368801   -0.363469 C.ar        1 UNL1     0.1435
     30 C         4.517407   7.117191   -0.885894 C.ar        1 UNL1     0.0774
     31 O         3.098823   8.393563   0.433792 O.3        1 UNL1     -0.4436
     32 C         2.466681   7.121965   0.223297 C.3        1 UNL1     0.3143
     33 C         3.568846   6.209356   -0.275292 C.2        1 UNL1     0.2504
     34 C         4.282973   10.880067   -0.310681 C.3        1 UNL1     -0.0327
     35 O         2.065029   6.628219   1.507097 O.2        1 UNL1     -0.4528
     36 C         -1.020973   4.506793   0.887227 C.3        1 UNL1     0.0854
     37 C         -1.196023   3.254017   -0.054808 C.3        1 UNL1     0.0236
     38 C         -1.755401   1.936926   0.669147 C.3        1 UNL1     0.1131
     39 C         -1.067607   1.418052   1.995789 C.3        1 UNL1     0.0200
     40 C         0.594925   1.37646   2.124998 C.3        1 UNL1     0.0661
     41 C         1.662958   0.701288   0.993159 C.3        1 UNL1     0.0091
     42 C         3.371368   1.185774   0.532713 C.3        1 UNL1     0.0661
     43 C         7.198694   8.019932   -3.298114 C.2        1 UNL1     0.2131
     44 O         7.577768   8.960394   -3.972332 O.2        1 UNL1     -0.2851
     45 O         6.631478   10.470676   -2.058356 O.3        1 UNL1     -0.5056
     46 O         3.655294   5.006147   -0.172003 O.2        1 UNL1     -0.2836
     47 C         5.355822   1.615126   2.26344 C.3        1 UNL1     -0.0566
     48 O         3.904861   -0.195935   0.606079 O.3        1 UNL1     -0.3909
     49 C         0.912999   0.449942   -0.295981 C.3        1 UNL1     -0.0577
     50 O         1.093575   2.618752   2.57863 O.3        1 UNL1     -0.3910
     51 O         -1.206831   4.272397   2.264887 O.3        1 UNL1     -0.3753
     52 C         -0.083256   3.190693   -1.151481 C.3        1 UNL1     -0.0564
     53 O         -2.240849   0.886549   -0.286559 O.3        1 UNL1     -0.4608
     54 C         -2.376213   -0.446869   -0.000895 C.2        1 UNL1     0.3042
     55 O         -1.62335   -1.361861   -0.332294 O.2        1 UNL1     -0.2512
     56 C         -3.565103   -0.759244   0.86263 C.3        1 UNL1     0.0332
     57 C         -1.896644   2.006175   3.230691 C.3        1 UNL1     -0.0567
     58 C         1.437462   7.327801   -0.912427 C.3        1 UNL1     0.0210
     59 C         -1.634439   5.409029   3.013944 C.3        1 UNL1     0.0372
     60 C         0.27518   5.224361   0.744936 C.2        1 UNL1     -0.0208
     61 C         1.110383   5.692786   1.673245 C.2        1 UNL1     0.0882
     62 H         4.467819   3.006731   0.899913 H        1 UNL1     0.0365
     63 H         6.096526   4.006542   0.180248 H        1 UNL1     0.0576
     64 H         8.284784   2.045756   -0.749065 H        1 UNL1     0.0615
     65 H         8.027018   5.156615   -0.867269 H        1 UNL1     0.0622
     66 H         -1.794494   5.212954   0.553987 H        1 UNL1     0.0645
     67 H         -2.045763   3.5245   -0.705454 H        1 UNL1     0.0362
     68 H         -2.746093   2.30364   0.978296 H        1 UNL1     0.0741
     69 H         -1.343303   0.383189   2.148953 H        1 UNL1     0.0359
     70 H         0.701705   0.701081   2.995355 H        1 UNL1     0.0600
     71 H         1.749316   -0.326187   1.397875 H        1 UNL1     0.0348
     72 H         3.182026   1.639871   1.516207 H        1 UNL1     0.0602
     73 H         0.435393   5.45639   -0.278657 H        1 UNL1     0.0628
     74 H         1.049251   5.452806   2.735276 H        1 UNL1     0.1022
     75 H         10.908585   3.022051   -2.833191 H        1 UNL1     0.0279
     76 H         10.821368   4.305814   -3.972333 H        1 UNL1     0.0279
     77 H         11.815413   4.430284   -2.465123 H        1 UNL1     0.0279
     78 H         8.993634   5.499802   -4.400063 H        1 UNL1     0.1553
     79 H         7.795363   3.941397   -4.151575 H        1 UNL1     0.1484
     80 H         4.105497   3.107161   -4.509945 H        1 UNL1     0.0317
     81 H         4.764087   4.690046   -4.89809 H        1 UNL1     0.0317
     82 H         6.805279   3.653518   -5.924175 H        1 UNL1     0.0428
     83 H         5.320014   3.097682   -6.663591 H        1 UNL1     0.0428
     84 H         7.111378   0.503564   -3.806197 H        1 UNL1     0.0428
     85 H         7.94918   1.979659   -4.135368 H        1 UNL1     0.0428
     86 H         6.542572   1.912896   -2.075794 H        1 UNL1     0.0317
     87 H         5.108462   1.612875   -2.945086 H        1 UNL1     0.0317
     88 H         7.577809   1.535008   -6.944701 H        1 UNL1     0.0429
     89 H         7.264447   0.004463   -6.122831 H        1 UNL1     0.0429
     90 H         4.720265   0.75335   -7.064605 H        1 UNL1     0.0308
     91 H         6.843306   1.693514   -9.065917 H        1 UNL1     0.0233
     92 H         5.187934   1.245284   -9.549994 H        1 UNL1     0.0233
     93 H         5.456561   2.603779   -8.479044 H        1 UNL1     0.0233
     94 H         5.320122   -0.942316   -8.944462 H        1 UNL1     0.0233
     95 H         6.836937   -1.122698   -8.049441 H        1 UNL1     0.0233
     96 H         5.287194   -1.477772   -7.251815 H        1 UNL1     0.0233
     97 H         3.404934   10.761286   0.317148 H        1 UNL1     0.0280
     98 H         5.004656   11.452061   0.287025 H        1 UNL1     0.0280
     99 H         3.99916   11.477989   -1.192177 H        1 UNL1     0.0280
     100 H         6.132772   11.225109   -2.318635 H        1 UNL1     0.2922
     101 H         4.465259   1.216202   2.748634 H        1 UNL1     0.0236
     102 H         5.823944   2.403353   2.852119 H        1 UNL1     0.0236
     103 H         6.080118   0.783686   2.280672 H        1 UNL1     0.0236
     104 H         4.196432   -0.351085   1.525799 H        1 UNL1     0.2098
     105 H         0.673874   1.348635   -0.858991 H        1 UNL1     0.0234
     106 H         1.366926   -0.295346   -0.948992 H        1 UNL1     0.0234
     107 H         0.0   -0.0   0.0 H        1 UNL1     0.0234
     108 H         0.946881   3.268489   1.864424 H        1 UNL1     0.2098
     109 H         0.925626   3.144352   -0.718214 H        1 UNL1     0.0234
     110 H         -0.218533   2.361742   -1.854534 H        1 UNL1     0.0234
     111 H         -0.092117   4.084701   -1.789147 H        1 UNL1     0.0234
     112 H         -3.602863   -1.833057   1.069622 H        1 UNL1     0.0342
     113 H         -3.56281   -0.183066   1.786674 H        1 UNL1     0.0342
     114 H         -4.473531   -0.491485   0.305649 H        1 UNL1     0.0342
     115 H         -2.97011   1.789275   3.142288 H        1 UNL1     0.0234
     116 H         -1.566053   1.63686   4.203504 H        1 UNL1     0.0234
     117 H         -1.904606   3.109055   3.26987 H        1 UNL1     0.0234
     118 H         0.400775   7.351008   -0.533286 H        1 UNL1     0.0309
     119 H         1.623404   8.230987   -1.502242 H        1 UNL1     0.0309
     120 H         1.426906   6.496554   -1.625886 H        1 UNL1     0.0309
     121 H         -1.308559   5.26671   4.043946 H        1 UNL1     0.0524
     122 H         -1.180994   6.345516   2.648682 H        1 UNL1     0.0524
     123 H         -2.716032   5.501341   2.97236 H        1 UNL1     0.0524
@<TRIPOS>BOND
     1     1     2    1
     2     1    42    1
     3     2     3    2
     4     3     4    1
     5     4     5    2
     6     5     7    1
     7     6    75    1
     8     6    76    1
     9     6    77    1
    10     7     9   am
    11     9    10    1
    12    10    11    2
    13    10    43    1
    14    11    14    1
    15    11    15    1
    16    12    13   ar
    17    12    27   ar
    18    12    43    1
    19    13    14    1
    20    13    30   ar
    21    14    17    2
    22    15    16    1
    23    16    17    1
    24    16    18    1
    25    16    22    1
    26    18    19    1
    27    19    20    1
    28    20    21    1
    29    21    22    1
    30    23    24    1
    31    23    88    1
    32    23    89    1
    33    24    25    1
    34    24    26    1
    35    24    90    1
    36    25    91    1
    37    25    92    1
    38    25    93    1
    39    26    94    1
    40    26    95    1
    41    26    96    1
    42    27    28   ar
    43    28    29   ar
    44    29    30   ar
    45    29    31    1
    46    30    33    1
    47    31    32    1
    48    32    33    1
    49    32    35    1
    50    34    97    1
    51    34    98    1
    52    34    99    1
    53    35    61    1
    54    36    37    1
    55    36    60    1
    56    37    38    1
    57    38    39    1
    58    39    40    1
    59    40    41    1
    60    41    42    1
    61    45   100    1
    62    47   101    1
    63    47   102    1
    64    47   103    1
    65    48   104    1
    66    49   105    1
    67    49   106    1
    68    49   107    1
    69    50   108    1
    70    51    59    1
    71    52   109    1
    72    52   110    1
    73    52   111    1
    74    53    54    1
    75    54    55    2
    76    54    56    1
    77    56   112    1
    78    56   113    1
    79    56   114    1
    80    57   115    1
    81    57   116    1
    82    57   117    1
    83    58   118    1
    84    58   119    1
    85    58   120    1
    86    59   121    1
    87    59   122    1
    88    59   123    1
    89    60    61    2
    90     1    47    1
    91     1    62    1
    92     2    63    1
    93     3    64    1
    94     4    65    1
    95     5     6    1
    96     7     8    2
    97     9    78    1
    98    15    79    1
    99    18    80    1
   100    18    81    1
   101    19    82    1
   102    19    83    1
   103    20    23    1
   104    21    84    1
   105    21    85    1
   106    22    86    1
   107    22    87    1
   108    27    45    1
   109    28    34    1
   110    32    58    1
   111    33    46    2
   112    36    51    1
   113    36    66    1
   114    37    52    1
   115    37    67    1
   116    38    53    1
   117    38    68    1
   118    42    48    1
   119    42    72    1
   120    43    44    2
   121    60    73    1
   122    61    74    1
   123    39    69    1
   124    39    57    1
   125    40    70    1
   126    40    50    1
   127    41    71    1
   128    41    49    1
