@<TRIPOS>MOLECULE
*****
 123 128 0 0 0
SMALL
GASTEIGER

@<TRIPOS>ATOM
     1 C         4.751127   2.392159   1.305237 C.3        1 UNL1     0.0009
     2 C         6.154847   3.446879   0.710113 C.2        1 UNL1     -0.0787
     3 C         7.513328   3.573434   0.225798 C.2        1 UNL1     -0.0649
     4 C         8.294123   4.969051   -0.330051 C.2        1 UNL1     -0.0542
     5 C         9.374922   5.466543   -1.099111 C.2        1 UNL1     0.0115
     6 C         10.685007   5.066249   -1.831754 C.3        1 UNL1     -0.0348
     7 C         9.333251   6.99007   -1.603211 C.2        1 UNL1     0.2441
     8 O         9.973219   7.885438   -1.069093 O.2        1 UNL1     -0.2702
     9 N         8.720441   7.180031   -2.854023 N.am        1 UNL1     -0.2772
     10 C         7.36542   7.36462   -2.70181 C.2        1 UNL1     0.1049
     11 C         6.638135   6.268398   -2.585299 C.2        1 UNL1     0.0801
     12 C         5.675339   8.670559   -1.399704 C.ar        1 UNL1     0.0753
     13 C         5.035419   7.419892   -1.125949 C.ar        1 UNL1     0.0305
     14 C         5.423185   6.193914   -1.819971 C.2        1 UNL1     0.0924
     15 N         6.97131   4.98394   -2.799052 N.pl3        1 UNL1     -0.3170
     16 C         5.771361   4.196277   -2.699239 C.3        1 UNL1     0.1275
     17 N         4.88104   4.980591   -1.766553 N.2        1 UNL1     -0.2557
     18 C         5.091421   4.233133   -4.064533 C.3        1 UNL1     0.0016
     19 C         6.078182   3.743852   -5.112625 C.3        1 UNL1     0.0026
     20 N         6.491954   2.390251   -4.76972 N.3        1 UNL1     -0.3018
     21 C         7.101946   2.242966   -3.446623 C.3        1 UNL1     0.0026
     22 C         6.091844   2.735927   -2.40904 C.3        1 UNL1     0.0016
     23 C         7.191398   1.723636   -5.850019 C.3        1 UNL1     0.0012
     24 C         6.222474   1.393614   -6.99633 C.3        1 UNL1     -0.0339
     25 C         6.267464   2.466176   -8.097078 C.3        1 UNL1     -0.0615
     26 C         6.522285   0.011467   -7.550011 C.3        1 UNL1     -0.0615
     27 C         5.220839   9.854971   -0.824624 C.ar        1 UNL1     0.1347
     28 C         4.115772   9.919575   0.005257 C.ar        1 UNL1     0.0342
     29 C         3.5315   8.669288   0.299491 C.ar        1 UNL1     0.1435
     30 C         3.998106   7.470173   -0.24053 C.ar        1 UNL1     0.0774
     31 O         2.382536   8.576615   1.003976 O.3        1 UNL1     -0.4436
     32 C         1.871483   7.27134   0.694213 C.3        1 UNL1     0.3143
     33 C         3.078448   6.467363   0.254816 C.2        1 UNL1     0.2504
     34 C         3.422438   11.17573   0.454103 C.3        1 UNL1     -0.0327
     35 O         1.408924   6.692849   1.920851 O.2        1 UNL1     -0.4528
     36 C         -1.440811   4.373518   0.968066 C.3        1 UNL1     0.0854
     37 C         -1.440797   3.153602   -0.031599 C.3        1 UNL1     0.0236
     38 C         -1.950485   1.76754   0.593536 C.3        1 UNL1     0.1131
     39 C         -1.331908   1.244462   1.952221 C.3        1 UNL1     0.0200
     40 C         0.313106   1.322993   2.217171 C.3        1 UNL1     0.0661
     41 C         1.51793   0.780727   1.153235 C.3        1 UNL1     0.0091
     42 C         3.214061   1.412642   0.85453 C.3        1 UNL1     0.0661
     43 C         6.783645   8.677823   -2.38655 C.2        1 UNL1     0.2131
     44 O         7.139909   9.672892   -2.991241 O.2        1 UNL1     -0.2851
     45 O         5.927802   11.021985   -1.106973 O.3        1 UNL1     -0.5056
     46 O         3.251028   5.270758   0.319681 O.2        1 UNL1     -0.2836
     47 C         5.014084   1.914432   2.758719 C.3        1 UNL1     -0.0566
     48 O         3.847332   0.073312   0.919958 O.3        1 UNL1     -0.3909
     49 C         0.895349   0.530188   -0.202167 C.3        1 UNL1     -0.0577
     50 O         0.67443   2.578328   2.756894 O.3        1 UNL1     -0.3910
     51 O         -1.716882   4.065578   2.3158 O.3        1 UNL1     -0.3753
     52 C         -0.242593   3.222684   -1.033838 C.3        1 UNL1     -0.0564
     53 O         -2.273787   0.726394   -0.437879 O.3        1 UNL1     -0.4608
     54 C         -2.359178   -0.621729   -0.207219 C.2        1 UNL1     0.3042
     55 O         -1.599354   -1.498965   -0.61583 O.2        1 UNL1     -0.2512
     56 C         -3.495273   -1.006335   0.697259 C.3        1 UNL1     0.0332
     57 C         -2.300598   1.713554   3.135339 C.3        1 UNL1     -0.0567
     58 C         0.923103   7.448406   -0.514403 C.3        1 UNL1     0.0210
     59 C         -2.291196   5.132713   3.06896 C.3        1 UNL1     0.0372
     60 C         -0.198096   5.192523   0.960762 C.2        1 UNL1     -0.0208
     61 C         0.520845   5.681572   1.972048 C.2        1 UNL1     0.0882
     62 H         4.130658   3.293392   1.379463 H        1 UNL1     0.0365
     63 H         5.727612   4.444003   0.835348 H        1 UNL1     0.0576
     64 H         8.130853   2.696808   0.017719 H        1 UNL1     0.0615
     65 H         7.63874   5.781478   -0.004596 H        1 UNL1     0.0622
     66 H         -2.238577   5.033137   0.598583 H        1 UNL1     0.0645
     67 H         -2.254618   3.387365   -0.739843 H        1 UNL1     0.0362
     68 H         -2.988508   2.044438   0.833029 H        1 UNL1     0.0741
     69 H         -1.536444   0.186009   2.043046 H        1 UNL1     0.0359
     70 H         0.403074   0.620109   3.067418 H        1 UNL1     0.0600
     71 H         1.652517   -0.254036   1.524864 H        1 UNL1     0.0348
     72 H         2.911653   1.80758   1.835289 H        1 UNL1     0.0602
     73 H         0.02444   5.480645   -0.03659 H        1 UNL1     0.0628
     74 H         0.394327   5.391331   3.015595 H        1 UNL1     0.1022
     75 H         10.853504   3.964674   -1.759814 H        1 UNL1     0.0279
     76 H         10.712211   5.237766   -2.905491 H        1 UNL1     0.0279
     77 H         11.585859   5.456215   -1.335676 H        1 UNL1     0.0279
     78 H         8.853943   6.35127   -3.429705 H        1 UNL1     0.1553
     79 H         7.766353   4.697383   -3.340093 H        1 UNL1     0.1484
     80 H         4.194168   3.603225   -4.034214 H        1 UNL1     0.0317
     81 H         4.754691   5.246841   -4.30673 H        1 UNL1     0.0317
     82 H         6.946603   4.413501   -5.198229 H        1 UNL1     0.0428
     83 H         5.573533   3.779972   -6.078583 H        1 UNL1     0.0428
     84 H         7.330334   1.205868   -3.1819 H        1 UNL1     0.0428
     85 H         8.072659   2.754059   -3.384837 H        1 UNL1     0.0428
     86 H         6.515933   2.49097   -1.452937 H        1 UNL1     0.0317
     87 H         5.183873   2.121838   -2.448784 H        1 UNL1     0.0317
     88 H         7.962769   2.406206   -6.229992 H        1 UNL1     0.0429
     89 H         7.706574   0.821803   -5.494964 H        1 UNL1     0.0429
     90 H         5.201396   1.342531   -6.600094 H        1 UNL1     0.0308
     91 H         7.279568   2.585189   -8.495301 H        1 UNL1     0.0233
     92 H         5.588502   2.210196   -8.913836 H        1 UNL1     0.0233
     93 H         5.950775   3.451249   -7.733519 H        1 UNL1     0.0233
     94 H         5.969428   -0.150277   -8.481689 H        1 UNL1     0.0233
     95 H         7.589452   -0.079012   -7.771216 H        1 UNL1     0.0233
     96 H         6.241113   -0.772112   -6.840847 H        1 UNL1     0.0233
     97 H         2.549545   10.963562   1.064244 H        1 UNL1     0.0280
     98 H         4.073011   11.809847   1.070468 H        1 UNL1     0.0280
     99 H         3.096312   11.752236   -0.42702 H        1 UNL1     0.0280
     100 H         5.403143   11.724656   -1.448455 H        1 UNL1     0.2922
     101 H         4.159211   1.341844   3.117871 H        1 UNL1     0.0236
     102 H         5.276078   2.726553   3.436068 H        1 UNL1     0.0236
     103 H         5.864252   1.214436   2.817157 H        1 UNL1     0.0236
     104 H         4.162606   -0.05948   1.835348 H        1 UNL1     0.2098
     105 H         0.631742   1.432058   -0.748933 H        1 UNL1     0.0234
     106 H         1.457285   -0.149322   -0.842809 H        1 UNL1     0.0234
     107 H         0.0   -0.0   0.0 H        1 UNL1     0.0234
     108 H         0.481075   3.252714   2.077493 H        1 UNL1     0.2098
     109 H         0.729021   3.233761   -0.520463 H        1 UNL1     0.0234
     110 H         -0.255551   2.417502   -1.776305 H        1 UNL1     0.0234
     111 H         -0.271064   4.140559   -1.636035 H        1 UNL1     0.0234
     112 H         -3.49404   -2.088906   0.856585 H        1 UNL1     0.0342
     113 H         -3.462852   -0.471831   1.645467 H        1 UNL1     0.0342
     114 H         -4.436891   -0.740575   0.197366 H        1 UNL1     0.0342
     115 H         -3.31881   1.320305   3.009694 H        1 UNL1     0.0234
     116 H         -1.957588   1.424779   4.13083 H        1 UNL1     0.0234
     117 H         -2.491385   2.800515   3.142873 H        1 UNL1     0.0234
     118 H         -0.085396   7.774961   -0.205698 H        1 UNL1     0.0309
     119 H         1.310238   8.143648   -1.266046 H        1 UNL1     0.0309
     120 H         0.733433   6.506892   -1.04136 H        1 UNL1     0.0309
     121 H         -1.569622   5.949019   3.087175 H        1 UNL1     0.0524
     122 H         -3.216804   5.518018   2.609801 H        1 UNL1     0.0524
     123 H         -2.510151   4.803333   4.080722 H        1 UNL1     0.0524
@<TRIPOS>BOND
     1     1     2    1
     2     1    42    1
     3     2     3    2
     4     3     4    1
     5     4     5    2
     6     5     7    1
     7     6    75    1
     8     6    76    1
     9     6    77    1
    10     7     9   am
    11     9    10    1
    12    10    11    2
    13    10    43    1
    14    11    14    1
    15    11    15    1
    16    12    13   ar
    17    12    27   ar
    18    12    43    1
    19    13    14    1
    20    13    30   ar
    21    14    17    2
    22    15    16    1
    23    16    17    1
    24    16    18    1
    25    16    22    1
    26    18    19    1
    27    19    20    1
    28    20    21    1
    29    21    22    1
    30    23    24    1
    31    23    88    1
    32    23    89    1
    33    24    25    1
    34    24    26    1
    35    24    90    1
    36    25    91    1
    37    25    92    1
    38    25    93    1
    39    26    94    1
    40    26    95    1
    41    26    96    1
    42    27    28   ar
    43    28    29   ar
    44    29    30   ar
    45    29    31    1
    46    30    33    1
    47    31    32    1
    48    32    33    1
    49    32    35    1
    50    34    97    1
    51    34    98    1
    52    34    99    1
    53    35    61    1
    54    36    37    1
    55    36    60    1
    56    37    38    1
    57    38    39    1
    58    39    40    1
    59    40    41    1
    60    41    42    1
    61    45   100    1
    62    47   101    1
    63    47   102    1
    64    47   103    1
    65    48   104    1
    66    49   105    1
    67    49   106    1
    68    49   107    1
    69    50   108    1
    70    51    59    1
    71    52   109    1
    72    52   110    1
    73    52   111    1
    74    53    54    1
    75    54    55    2
    76    54    56    1
    77    56   112    1
    78    56   113    1
    79    56   114    1
    80    57   115    1
    81    57   116    1
    82    57   117    1
    83    58   118    1
    84    58   119    1
    85    58   120    1
    86    59   121    1
    87    59   122    1
    88    59   123    1
    89    60    61    2
    90     1    47    1
    91     1    62    1
    92     2    63    1
    93     3    64    1
    94     4    65    1
    95     5     6    1
    96     7     8    2
    97     9    78    1
    98    15    79    1
    99    18    80    1
   100    18    81    1
   101    19    82    1
   102    19    83    1
   103    20    23    1
   104    21    84    1
   105    21    85    1
   106    22    86    1
   107    22    87    1
   108    27    45    1
   109    28    34    1
   110    32    58    1
   111    33    46    2
   112    36    51    1
   113    36    66    1
   114    37    52    1
   115    37    67    1
   116    38    53    1
   117    38    68    1
   118    42    48    1
   119    42    72    1
   120    43    44    2
   121    60    73    1
   122    61    74    1
   123    39    69    1
   124    39    57    1
   125    40    70    1
   126    40    50    1
   127    41    71    1
   128    41    49    1
