@<TRIPOS>MOLECULE
*****
 123 128 0 0 0
SMALL
GASTEIGER

@<TRIPOS>ATOM
     1 C         4.365376   2.983305   1.43357 C.3        1 UNL1     0.0009
     2 C         5.677536   4.158373   0.855217 C.2        1 UNL1     -0.0787
     3 C         7.043875   4.415628   0.451504 C.2        1 UNL1     -0.0649
     4 C         7.696756   5.856176   -0.152585 C.2        1 UNL1     -0.0542
     5 C         8.765872   6.429252   -0.884468 C.2        1 UNL1     0.0115
     6 C         10.163025   6.142773   -1.500273 C.3        1 UNL1     -0.0348
     7 C         8.585451   7.90113   -1.499293 C.2        1 UNL1     0.2441
     8 O         9.077479   8.899351   -0.991366 O.2        1 UNL1     -0.2702
     9 N         8.047135   7.93525   -2.797447 N.am        1 UNL1     -0.2772
     10 C         6.672423   7.965278   -2.746599 C.2        1 UNL1     0.1049
     11 C         6.069881   6.799476   -2.598031 C.2        1 UNL1     0.0801
     12 C         4.753091   9.14001   -1.654124 C.ar        1 UNL1     0.0753
     13 C         4.24351   7.84181   -1.332231 C.ar        1 UNL1     0.0305
     14 C         4.819356   6.629124   -1.909159 C.2        1 UNL1     0.0924
     15 N         6.563567   5.553219   -2.696229 N.pl3        1 UNL1     -0.3170
     16 C         5.458396   4.635293   -2.617083 C.3        1 UNL1     0.1275
     17 N         4.418306   5.365475   -1.802975 N.2        1 UNL1     -0.2557
     18 C         4.879532   4.502308   -4.022407 C.3        1 UNL1     0.0016
     19 C         5.989508   4.068558   -4.966549 C.3        1 UNL1     0.0026
     20 N         6.530654   2.799308   -4.50051 N.3        1 UNL1     -0.3018
     21 C         7.056015   2.811781   -3.133686 C.3        1 UNL1     0.0026
     22 C         5.923254   3.245699   -2.201773 C.3        1 UNL1     0.0016
     23 C         7.378775   2.153317   -5.48236 C.3        1 UNL1     0.0012
     24 C         8.813688   2.696665   -5.395449 C.3        1 UNL1     -0.0339
     25 C         9.483083   2.740753   -6.778931 C.3        1 UNL1     -0.0615
     26 C         8.814104   4.062169   -4.730484 C.3        1 UNL1     -0.0615
     27 C         4.12455   10.295851   -1.196865 C.ar        1 UNL1     0.1347
     28 C         2.962164   10.280635   -0.446747 C.ar        1 UNL1     0.0342
     29 C         2.506183   8.99081   -0.100916 C.ar        1 UNL1     0.1435
     30 C         3.14587   7.824113   -0.521436 C.ar        1 UNL1     0.0774
     31 O         1.327537   8.806443   0.532967 O.3        1 UNL1     -0.4436
     32 C         0.994226   7.43205   0.286348 C.3        1 UNL1     0.3143
     33 C         2.31451   6.752149   -0.014977 C.2        1 UNL1     0.2504
     34 C         2.097894   11.470758   -0.135708 C.3        1 UNL1     -0.0327
     35 O         0.513752   6.882391   1.519342 O.2        1 UNL1     -0.4528
     36 C         -1.972884   4.181293   0.5556 C.3        1 UNL1     0.0854
     37 C         -1.759715   2.908397   -0.350942 C.3        1 UNL1     0.0236
     38 C         -2.150142   1.514315   0.338875 C.3        1 UNL1     0.1131
     39 C         -1.575521   1.157819   1.768907 C.3        1 UNL1     0.0200
     40 C         0.025895   1.45012   2.132864 C.3        1 UNL1     0.0661
     41 C         1.35916   0.989033   1.190838 C.3        1 UNL1     0.0091
     42 C         2.98827   1.799413   0.956981 C.3        1 UNL1     0.0661
     43 C         5.921778   9.216708   -2.565467 C.2        1 UNL1     0.2131
     44 O         6.203817   10.206341   -3.21648 O.2        1 UNL1     -0.2851
     45 O         4.710819   11.51867   -1.516929 O.3        1 UNL1     -0.5056
     46 O         2.618767   5.591585   0.14742 O.2        1 UNL1     -0.2836
     47 C         4.57559   2.635155   2.931763 C.3        1 UNL1     -0.0566
     48 O         3.76534   0.552785   1.159954 O.3        1 UNL1     -0.3909
     49 C         0.869545   0.578851   -0.180118 C.3        1 UNL1     -0.0577
     50 O         0.199959   2.77187   2.602336 O.3        1 UNL1     -0.3910
     51 O         -2.308587   3.929843   1.901522 O.3        1 UNL1     -0.3753
     52 C         -0.50798   3.056137   -1.276296 C.3        1 UNL1     -0.0564
     53 O         -2.275588   0.377672   -0.633047 O.3        1 UNL1     -0.4608
     54 C         -1.893472   -0.916863   -0.3962 C.2        1 UNL1     0.3042
     55 O         -0.879886   -1.482868   -0.803779 O.2        1 UNL1     -0.2512
     56 C         -2.827255   -1.662569   0.514121 C.3        1 UNL1     0.0332
     57 C         -2.675055   1.582429   2.850066 C.3        1 UNL1     -0.0567
     58 C         0.121896   7.415834   -0.990486 C.3        1 UNL1     0.0210
     59 C         -3.661304   4.22429   2.246955 C.3        1 UNL1     0.0372
     60 C         -0.835668   5.141356   0.569011 C.2        1 UNL1     -0.0208
     61 C         -0.253144   5.777239   1.586392 C.2        1 UNL1     0.0882
     62 H         3.641383   3.806445   1.40217 H        1 UNL1     0.0365
     63 H         5.130218   5.102986   0.88008 H        1 UNL1     0.0576
     64 H         7.77182   3.607896   0.347709 H        1 UNL1     0.0615
     65 H         6.930199   6.603318   0.070247 H        1 UNL1     0.0622
     66 H         -2.812491   4.715228   0.088673 H        1 UNL1     0.0645
     67 H         -2.541558   2.99671   -1.125205 H        1 UNL1     0.0362
     68 H         -3.227785   1.679459   0.490318 H        1 UNL1     0.0741
     69 H         -1.662678   0.090526   1.922842 H        1 UNL1     0.0359
     70 H         0.134432   0.819317   3.035841 H        1 UNL1     0.0600
     71 H         1.584874   0.003988   1.644378 H        1 UNL1     0.0348
     72 H         2.572029   2.217506   1.885021 H        1 UNL1     0.0602
     73 H         -0.57612   5.389303   -0.430191 H        1 UNL1     0.0628
     74 H         -0.420675   5.541692   2.637909 H        1 UNL1     0.1022
     75 H         10.942031   6.782124   -1.019216 H        1 UNL1     0.0279
     76 H         10.560565   5.14067   -1.355982 H        1 UNL1     0.0279
     77 H         10.2386   6.46193   -2.550096 H        1 UNL1     0.0279
     78 H         8.316702   7.093179   -3.301755 H        1 UNL1     0.1553
     79 H         7.423472   5.329932   -3.162747 H        1 UNL1     0.1484
     80 H         4.061083   3.772527   -4.004366 H        1 UNL1     0.0317
     81 H         4.446604   5.450563   -4.358617 H        1 UNL1     0.0317
     82 H         6.77882   4.83069   -5.044351 H        1 UNL1     0.0428
     83 H         5.555433   3.98159   -5.963076 H        1 UNL1     0.0428
     84 H         7.382676   1.828801   -2.780338 H        1 UNL1     0.0428
     85 H         7.954264   3.438601   -3.046713 H        1 UNL1     0.0428
     86 H         6.302316   3.115473   -1.205108 H        1 UNL1     0.0317
     87 H         5.097442   2.525793   -2.255302 H        1 UNL1     0.0317
     88 H         7.398329   1.077956   -5.262108 H        1 UNL1     0.0429
     89 H         6.973142   2.266678   -6.49596 H        1 UNL1     0.0429
     90 H         9.405541   2.045019   -4.741782 H        1 UNL1     0.0308
     91 H         8.815811   3.174047   -7.530001 H        1 UNL1     0.0233
     92 H         10.407475   3.32194   -6.742456 H        1 UNL1     0.0233
     93 H         9.762914   1.743478   -7.139448 H        1 UNL1     0.0233
     94 H         9.7899   4.543511   -4.856845 H        1 UNL1     0.0233
     95 H         8.059257   4.703627   -5.193843 H        1 UNL1     0.0233
     96 H         8.602893   3.984906   -3.660255 H        1 UNL1     0.0233
     97 H         1.081554   11.341458   -0.495659 H        1 UNL1     0.0280
     98 H         2.013742   11.650191   0.944096 H        1 UNL1     0.0280
     99 H         2.521782   12.369478   -0.612905 H        1 UNL1     0.0280
     100 H         5.650952   11.524951   -1.475308 H        1 UNL1     0.2922
     101 H         5.612847   2.34632   3.100074 H        1 UNL1     0.0236
     102 H         3.877117   1.88419   3.299416 H        1 UNL1     0.0236
     103 H         4.418737   3.509009   3.585957 H        1 UNL1     0.0236
     104 H         3.1279   -0.185309   1.222062 H        1 UNL1     0.2098
     105 H         0.589267   1.40886   -0.823812 H        1 UNL1     0.0234
     106 H         1.528671   -0.106494   -0.712829 H        1 UNL1     0.0234
     107 H         0.0   -0.0   0.0 H        1 UNL1     0.0234
     108 H         1.157362   2.963461   2.581339 H        1 UNL1     0.2098
     109 H         -0.596661   3.909621   -1.962891 H        1 UNL1     0.0234
     110 H         0.432468   3.129862   -0.71964 H        1 UNL1     0.0234
     111 H         -0.370623   2.17365   -1.915277 H        1 UNL1     0.0234
     112 H         -3.864408   -1.461283   0.229268 H        1 UNL1     0.0342
     113 H         -2.624667   -2.732499   0.521311 H        1 UNL1     0.0342
     114 H         -2.680371   -1.289095   1.536915 H        1 UNL1     0.0342
     115 H         -2.682877   0.902688   3.713246 H        1 UNL1     0.0234
     116 H         -2.552566   2.59764   3.232679 H        1 UNL1     0.0234
     117 H         -3.712065   1.47804   2.487222 H        1 UNL1     0.0234
     118 H         -0.927732   7.151961   -0.772178 H        1 UNL1     0.0309
     119 H         0.14644   8.362431   -1.539626 H        1 UNL1     0.0309
     120 H         0.433484   6.64395   -1.702675 H        1 UNL1     0.0309
     121 H         -3.689305   4.440867   3.314507 H        1 UNL1     0.0524
     122 H         -4.044325   5.112745   1.717823 H        1 UNL1     0.0524
     123 H         -4.300463   3.375797   2.019732 H        1 UNL1     0.0524
@<TRIPOS>BOND
     1     1     2    1
     2     1    42    1
     3     2     3    2
     4     3     4    1
     5     4     5    2
     6     5     7    1
     7     6    75    1
     8     6    76    1
     9     6    77    1
    10     7     9   am
    11     9    10    1
    12    10    11    2
    13    10    43    1
    14    11    14    1
    15    11    15    1
    16    12    13   ar
    17    12    27   ar
    18    12    43    1
    19    13    14    1
    20    13    30   ar
    21    14    17    2
    22    15    16    1
    23    16    17    1
    24    16    18    1
    25    16    22    1
    26    18    19    1
    27    19    20    1
    28    20    21    1
    29    21    22    1
    30    23    24    1
    31    23    88    1
    32    23    89    1
    33    24    25    1
    34    24    26    1
    35    24    90    1
    36    25    91    1
    37    25    92    1
    38    25    93    1
    39    26    94    1
    40    26    95    1
    41    26    96    1
    42    27    28   ar
    43    28    29   ar
    44    29    30   ar
    45    29    31    1
    46    30    33    1
    47    31    32    1
    48    32    33    1
    49    32    35    1
    50    34    97    1
    51    34    98    1
    52    34    99    1
    53    35    61    1
    54    36    37    1
    55    36    60    1
    56    37    38    1
    57    38    39    1
    58    39    40    1
    59    40    41    1
    60    41    42    1
    61    45   100    1
    62    47   101    1
    63    47   102    1
    64    47   103    1
    65    48   104    1
    66    49   105    1
    67    49   106    1
    68    49   107    1
    69    50   108    1
    70    51    59    1
    71    52   109    1
    72    52   110    1
    73    52   111    1
    74    53    54    1
    75    54    55    2
    76    54    56    1
    77    56   112    1
    78    56   113    1
    79    56   114    1
    80    57   115    1
    81    57   116    1
    82    57   117    1
    83    58   118    1
    84    58   119    1
    85    58   120    1
    86    59   121    1
    87    59   122    1
    88    59   123    1
    89    60    61    2
    90     1    47    1
    91     1    62    1
    92     2    63    1
    93     3    64    1
    94     4    65    1
    95     5     6    1
    96     7     8    2
    97     9    78    1
    98    15    79    1
    99    18    80    1
   100    18    81    1
   101    19    82    1
   102    19    83    1
   103    20    23    1
   104    21    84    1
   105    21    85    1
   106    22    86    1
   107    22    87    1
   108    27    45    1
   109    28    34    1
   110    32    58    1
   111    33    46    2
   112    36    51    1
   113    36    66    1
   114    37    52    1
   115    37    67    1
   116    38    53    1
   117    38    68    1
   118    42    48    1
   119    42    72    1
   120    43    44    2
   121    60    73    1
   122    61    74    1
   123    39    69    1
   124    39    57    1
   125    40    70    1
   126    40    50    1
   127    41    71    1
   128    41    49    1
