@<TRIPOS>MOLECULE
*****
 123 128 0 0 0
SMALL
GASTEIGER

@<TRIPOS>ATOM
     1 C         5.18059   1.704789   0.498893 C.3        1 UNL1     0.0009
     2 C         6.629388   2.488655   -0.351737 C.2        1 UNL1     -0.0787
     3 C         7.912405   2.371328   -1.012154 C.2        1 UNL1     -0.0649
     4 C         8.80657   3.591194   -1.772912 C.2        1 UNL1     -0.0542
     5 C         9.833182   3.865791   -2.709791 C.2        1 UNL1     0.0115
     6 C         10.957211   3.221644   -3.567087 C.3        1 UNL1     -0.0348
     7 C         9.947603   5.3437   -3.325976 C.2        1 UNL1     0.2441
     8 O         10.779482   6.158453   -2.950903 O.2        1 UNL1     -0.2702
     9 N         9.203934   5.551229   -4.500727 N.am        1 UNL1     -0.2772
     10 C         7.924621   5.954637   -4.194229 C.2        1 UNL1     0.1049
     11 C         7.066766   4.994941   -3.89878 C.2        1 UNL1     0.0801
     12 C         6.639696   7.585559   -2.799096 C.ar        1 UNL1     0.0753
     13 C         5.866225   6.469445   -2.346723 C.ar        1 UNL1     0.0305
     14 C         5.970509   5.15813   -2.982829 C.2        1 UNL1     0.0924
     15 N         7.174755   3.663599   -4.048424 N.pl3        1 UNL1     -0.3170
     16 C         5.89703   3.0811   -3.734784 C.3        1 UNL1     0.1275
     17 N         5.268129   4.05018   -2.763656 N.2        1 UNL1     -0.2557
     18 C         5.049381   3.141282   -5.001895 C.3        1 UNL1     0.0016
     19 C         5.800378   2.440956   -6.123117 C.3        1 UNL1     0.0026
     20 N         6.053392   1.062524   -5.726964 N.3        1 UNL1     -0.3018
     21 C         6.810485   0.901882   -4.483833 C.3        1 UNL1     0.0026
     22 C         6.035726   1.608855   -3.370356 C.3        1 UNL1     0.0016
     23 C         6.492422   0.230432   -6.82947 C.3        1 UNL1     0.0012
     24 C         5.336516   -0.016147   -7.811731 C.3        1 UNL1     -0.0339
     25 C         5.37326   0.977718   -8.984309 C.3        1 UNL1     -0.0615
     26 C         5.36377   -1.454952   -8.297404 C.3        1 UNL1     -0.0615
     27 C         6.44763   8.85915   -2.268819 C.ar        1 UNL1     0.1347
     28 C         5.48833   9.146149   -1.314132 C.ar        1 UNL1     0.0342
     29 C         4.772231   8.022935   -0.848562 C.ar        1 UNL1     0.1435
     30 C         4.978794   6.735075   -1.344515 C.ar        1 UNL1     0.0774
     31 O         3.729599   8.154175   0.000379 O.3        1 UNL1     -0.4436
     32 C         2.994388   6.928724   -0.136029 C.3        1 UNL1     0.3143
     33 C         3.998144   5.920527   -0.657782 C.2        1 UNL1     0.2504
     34 C         5.055577   10.52023   -0.884335 C.3        1 UNL1     -0.0327
     35 O         2.624145   6.505145   1.18183 O.2        1 UNL1     -0.4528
     36 C         -0.639347   4.607402   0.786513 C.3        1 UNL1     0.0854
     37 C         -0.955871   3.344293   -0.10337 C.3        1 UNL1     0.0236
     38 C         -1.57357   2.095579   0.690927 C.3        1 UNL1     0.1131
     39 C         -0.858517   1.56529   1.998506 C.3        1 UNL1     0.0200
     40 C         0.800748   1.401098   2.046642 C.3        1 UNL1     0.0661
     41 C         1.755383   0.613426   0.886531 C.3        1 UNL1     0.0091
     42 C         3.468978   0.952635   0.326235 C.3        1 UNL1     0.0661
     43 C         7.591247   7.359397   -3.915188 C.2        1 UNL1     0.2131
     44 O         8.003895   8.247936   -4.638347 O.2        1 UNL1     -0.2851
     45 O         7.273281   9.881777   -2.731389 O.3        1 UNL1     -0.5056
     46 O         3.999918   4.717808   -0.51879 O.2        1 UNL1     -0.2836
     47 C         5.566951   1.280642   1.941393 C.3        1 UNL1     -0.0566
     48 O         3.901097   -0.462902   0.419204 O.3        1 UNL1     -0.3909
     49 C         0.922964   0.381908   -0.354828 C.3        1 UNL1     -0.0577
     50 O         1.413438   2.614689   2.433335 O.3        1 UNL1     -0.3910
     51 O         -0.770494   4.428654   2.178734 O.3        1 UNL1     -0.3753
     52 C         0.090734   3.16406   -1.251013 C.3        1 UNL1     -0.0564
     53 O         -2.184835   1.057418   -0.204004 O.3        1 UNL1     -0.4608
     54 C         -2.423276   -0.247633   0.139386 C.2        1 UNL1     0.3042
     55 O         -1.860983   -1.25012   -0.299573 O.2        1 UNL1     -0.2512
     56 C         -3.45832   -0.406612   1.216477 C.3        1 UNL1     0.0332
     57 C         -1.576288   2.251056   3.252581 C.3        1 UNL1     -0.0567
     58 C         1.925887   7.178654   -1.225694 C.3        1 UNL1     0.0210
     59 C         -1.103778   5.610141   2.905972 C.3        1 UNL1     0.0372
     60 C         0.697555   5.2197   0.556414 C.2        1 UNL1     -0.0208
     61 C         1.61234   5.650418   1.426123 C.2        1 UNL1     0.0882
     62 H         4.715645   2.694898   0.577767 H        1 UNL1     0.0365
     63 H         6.374834   3.546117   -0.254546 H        1 UNL1     0.0576
     64 H         8.359754   1.397835   -1.224986 H        1 UNL1     0.0615
     65 H         8.328765   4.514433   -1.434069 H        1 UNL1     0.0622
     66 H         -1.374321   5.360238   0.468554 H        1 UNL1     0.0645
     67 H         -1.815672   3.659327   -0.719856 H        1 UNL1     0.0362
     68 H         -2.516816   2.545621   1.036284 H        1 UNL1     0.0741
     69 H         -1.20226   0.559397   2.199576 H        1 UNL1     0.0359
     70 H         0.901871   0.74557   2.932711 H        1 UNL1     0.0600
     71 H         1.78579   -0.405229   1.320551 H        1 UNL1     0.0348
     72 H         3.36524   1.448697   1.302184 H        1 UNL1     0.0602
     73 H         0.82134   5.408505   -0.481024 H        1 UNL1     0.0628
     74 H         1.588628   5.447282   2.497296 H        1 UNL1     0.1022
     75 H         10.988517   2.117001   -3.406408 H        1 UNL1     0.0279
     76 H         10.848323   3.298353   -4.646591 H        1 UNL1     0.0279
     77 H         11.964549   3.517089   -3.238937 H        1 UNL1     0.0279
     78 H         9.133838   4.678478   -5.019832 H        1 UNL1     0.1553
     79 H         7.837254   3.223839   -4.660501 H        1 UNL1     0.1484
     80 H         4.081875   2.662683   -4.807883 H        1 UNL1     0.0317
     81 H         4.835592   4.178676   -5.280747 H        1 UNL1     0.0317
     82 H         6.737918   2.959901   -6.371363 H        1 UNL1     0.0428
     83 H         5.179033   2.497131   -7.017446 H        1 UNL1     0.0428
     84 H         6.917788   -0.140237   -4.167155 H        1 UNL1     0.0428
     85 H         7.845075   1.257423   -4.58645 H        1 UNL1     0.0428
     86 H         6.54606   1.35883   -2.458745 H        1 UNL1     0.0317
     87 H         5.050452   1.143288   -3.245541 H        1 UNL1     0.0317
     88 H         7.294305   0.760878   -7.359473 H        1 UNL1     0.0429
     89 H         6.915786   -0.716474   -6.470436 H        1 UNL1     0.0429
     90 H         4.383724   0.103323   -7.28246 H        1 UNL1     0.0308
     91 H         6.32269   0.919995   -9.525005 H        1 UNL1     0.0233
     92 H         4.552482   0.785678   -9.679329 H        1 UNL1     0.0233
     93 H         5.257725   2.017269   -8.654429 H        1 UNL1     0.0233
     94 H         4.667821   -1.58469   -9.133262 H        1 UNL1     0.0233
     95 H         6.366512   -1.711091   -8.650766 H        1 UNL1     0.0233
     96 H         5.081619   -2.150115   -7.501723 H        1 UNL1     0.0233
     97 H         4.259128   10.484563   -0.147025 H        1 UNL1     0.0280
     98 H         5.87314   11.084159   -0.416539 H        1 UNL1     0.0280
     99 H         4.691433   11.083027   -1.759408 H        1 UNL1     0.0280
     100 H         6.815991   10.635176   -3.061386 H        1 UNL1     0.2922
     101 H         4.697469   0.860336   2.44637 H        1 UNL1     0.0236
     102 H         6.02487   2.084734   2.516483 H        1 UNL1     0.0236
     103 H         6.313976   0.469411   1.948465 H        1 UNL1     0.0236
     104 H         4.316094   -0.58769   1.29509 H        1 UNL1     0.2098
     105 H         0.712488   1.280991   -0.928553 H        1 UNL1     0.0234
     106 H         1.292382   -0.406652   -1.010291 H        1 UNL1     0.0234
     107 H         0.0   -0.0   0.0 H        1 UNL1     0.0234
     108 H         1.222471   3.271171   1.735961 H        1 UNL1     0.2098
     109 H         1.112864   3.041509   -0.866379 H        1 UNL1     0.0234
     110 H         -0.148759   2.335035   -1.925627 H        1 UNL1     0.0234
     111 H         0.124304   4.042088   -1.909713 H        1 UNL1     0.0234
     112 H         -3.596607   -1.467517   1.446052 H        1 UNL1     0.0342
     113 H         -3.206266   0.157551   2.113155 H        1 UNL1     0.0342
     114 H         -4.412512   -0.017317   0.835516 H        1 UNL1     0.0342
     115 H         -2.643623   1.995143   3.302502 H        1 UNL1     0.0234
     116 H         -1.131122   1.991951   4.215255 H        1 UNL1     0.0234
     117 H         -1.623966   3.351531   3.184579 H        1 UNL1     0.0234
     118 H         1.028994   7.678612   -0.819947 H        1 UNL1     0.0309
     119 H         2.304919   7.756583   -2.074538 H        1 UNL1     0.0309
     120 H         1.528186   6.2483   -1.645673 H        1 UNL1     0.0309
     121 H         -0.292339   6.323704   2.76543 H        1 UNL1     0.0524
     122 H         -2.028948   6.082341   2.535667 H        1 UNL1     0.0524
     123 H         -1.222837   5.380964   3.961148 H        1 UNL1     0.0524
@<TRIPOS>BOND
     1     1     2    1
     2     1    42    1
     3     2     3    2
     4     3     4    1
     5     4     5    2
     6     5     7    1
     7     6    75    1
     8     6    76    1
     9     6    77    1
    10     7     9   am
    11     9    10    1
    12    10    11    2
    13    10    43    1
    14    11    14    1
    15    11    15    1
    16    12    13   ar
    17    12    27   ar
    18    12    43    1
    19    13    14    1
    20    13    30   ar
    21    14    17    2
    22    15    16    1
    23    16    17    1
    24    16    18    1
    25    16    22    1
    26    18    19    1
    27    19    20    1
    28    20    21    1
    29    21    22    1
    30    23    24    1
    31    23    88    1
    32    23    89    1
    33    24    25    1
    34    24    26    1
    35    24    90    1
    36    25    91    1
    37    25    92    1
    38    25    93    1
    39    26    94    1
    40    26    95    1
    41    26    96    1
    42    27    28   ar
    43    28    29   ar
    44    29    30   ar
    45    29    31    1
    46    30    33    1
    47    31    32    1
    48    32    33    1
    49    32    35    1
    50    34    97    1
    51    34    98    1
    52    34    99    1
    53    35    61    1
    54    36    37    1
    55    36    60    1
    56    37    38    1
    57    38    39    1
    58    39    40    1
    59    40    41    1
    60    41    42    1
    61    45   100    1
    62    47   101    1
    63    47   102    1
    64    47   103    1
    65    48   104    1
    66    49   105    1
    67    49   106    1
    68    49   107    1
    69    50   108    1
    70    51    59    1
    71    52   109    1
    72    52   110    1
    73    52   111    1
    74    53    54    1
    75    54    55    2
    76    54    56    1
    77    56   112    1
    78    56   113    1
    79    56   114    1
    80    57   115    1
    81    57   116    1
    82    57   117    1
    83    58   118    1
    84    58   119    1
    85    58   120    1
    86    59   121    1
    87    59   122    1
    88    59   123    1
    89    60    61    2
    90     1    47    1
    91     1    62    1
    92     2    63    1
    93     3    64    1
    94     4    65    1
    95     5     6    1
    96     7     8    2
    97     9    78    1
    98    15    79    1
    99    18    80    1
   100    18    81    1
   101    19    82    1
   102    19    83    1
   103    20    23    1
   104    21    84    1
   105    21    85    1
   106    22    86    1
   107    22    87    1
   108    27    45    1
   109    28    34    1
   110    32    58    1
   111    33    46    2
   112    36    51    1
   113    36    66    1
   114    37    52    1
   115    37    67    1
   116    38    53    1
   117    38    68    1
   118    42    48    1
   119    42    72    1
   120    43    44    2
   121    60    73    1
   122    61    74    1
   123    39    69    1
   124    39    57    1
   125    40    70    1
   126    40    50    1
   127    41    71    1
   128    41    49    1
