@<TRIPOS>MOLECULE
*****
 123 128 0 0 0
SMALL
GASTEIGER

@<TRIPOS>ATOM
     1 C         5.141341   1.833583   0.460486 C.3        1 UNL1     0.0009
     2 C         6.550917   2.682595   -0.393512 C.2        1 UNL1     -0.0787
     3 C         7.827667   2.621739   -1.073404 C.2        1 UNL1     -0.0649
     4 C         8.669659   3.885921   -1.821234 C.2        1 UNL1     -0.0542
     5 C         9.673147   4.21352   -2.766099 C.2        1 UNL1     0.0115
     6 C         10.805856   3.624786   -3.65136 C.3        1 UNL1     -0.0348
     7 C         9.72932   5.706373   -3.353654 C.2        1 UNL1     0.2441
     8 O         10.538695   6.541132   -2.97337 O.2        1 UNL1     -0.2702
     9 N         8.962574   5.911945   -4.513823 N.am        1 UNL1     -0.2772
     10 C         7.674945   6.265806   -4.181989 C.2        1 UNL1     0.1049
     11 C         6.853949   5.272045   -3.89454 C.2        1 UNL1     0.0801
     12 C         6.356039   7.824466   -2.736859 C.ar        1 UNL1     0.0753
     13 C         5.626826   6.674142   -2.296845 C.ar        1 UNL1     0.0305
     14 C         5.765917   5.379963   -2.960775 C.2        1 UNL1     0.0924
     15 N         7.004297   3.948333   -4.07261 N.pl3        1 UNL1     -0.3170
     16 C         5.751345   3.316954   -3.753663 C.3        1 UNL1     0.1275
     17 N         5.104176   4.244819   -2.754684 N.2        1 UNL1     -0.2557
     18 C         4.884311   3.373614   -5.007754 C.3        1 UNL1     0.0016
     19 C         5.642378   2.721393   -6.152974 C.3        1 UNL1     0.0026
     20 N         5.946955   1.344698   -5.788319 N.3        1 UNL1     -0.3018
     21 C         6.726515   1.185075   -4.55902 C.3        1 UNL1     0.0026
     22 C         5.944369   1.843291   -3.421086 C.3        1 UNL1     0.0016
     23 C         6.397936   0.549915   -6.913299 C.3        1 UNL1     0.0012
     24 C         5.238151   0.287693   -7.886898 C.3        1 UNL1     -0.0339
     25 C         5.30008   1.228216   -9.101657 C.3        1 UNL1     -0.0615
     26 C         5.232444   -1.171212   -8.309204 C.3        1 UNL1     -0.0615
     27 C         6.128987   9.080088   -2.178308 C.ar        1 UNL1     0.1347
     28 C         5.174228   9.315574   -1.205153 C.ar        1 UNL1     0.0342
     29 C         4.502773   8.159829   -0.752862 C.ar        1 UNL1     0.1435
     30 C         4.745275   6.889758   -1.277584 C.ar        1 UNL1     0.0774
     31 O         3.468452   8.238961   0.112542 O.3        1 UNL1     -0.4436
     32 C         2.772801   6.992348   -0.038784 C.3        1 UNL1     0.3143
     33 C         3.802246   6.029132   -0.594367 C.2        1 UNL1     0.2504
     34 C         4.701865   10.66548   -0.741768 C.3        1 UNL1     -0.0327
     35 O         2.435625   6.530473   1.275079 O.2        1 UNL1     -0.4528
     36 C         -0.767807   4.531917   0.885353 C.3        1 UNL1     0.0854
     37 C         -1.05445   3.27674   -0.02563 C.3        1 UNL1     0.0236
     38 C         -1.618718   1.992395   0.751417 C.3        1 UNL1     0.1131
     39 C         -0.867889   1.460711   2.038211 C.3        1 UNL1     0.0200
     40 C         0.796456   1.35167   2.06064 C.3        1 UNL1     0.0661
     41 C         1.760399   0.619812   0.872025 C.3        1 UNL1     0.0091
     42 C         3.453584   1.027683   0.295684 C.3        1 UNL1     0.0661
     43 C         7.298735   7.652711   -3.870034 C.2        1 UNL1     0.2131
     44 O         7.671145   8.568828   -4.580509 O.2        1 UNL1     -0.2851
     45 O         6.91333   10.138959   -2.631117 O.3        1 UNL1     -0.5056
     46 O         3.84623   4.824639   -0.479845 O.2        1 UNL1     -0.2836
     47 C         5.562052   1.394196   1.888745 C.3        1 UNL1     -0.0566
     48 O         3.934098   -0.374035   0.354078 O.3        1 UNL1     -0.3909
     49 C         0.91871   0.384999   -0.362446 C.3        1 UNL1     -0.0577
     50 O         1.373605   2.577336   2.463587 O.3        1 UNL1     -0.3910
     51 O         -0.873184   4.321278   2.275302 O.3        1 UNL1     -0.3753
     52 C         -0.018746   3.154711   -1.190695 C.3        1 UNL1     -0.0564
     53 O         -2.207506   0.95215   -0.156076 O.3        1 UNL1     -0.4608
     54 C         -2.378131   -0.371134   0.156552 C.2        1 UNL1     0.3042
     55 O         -1.778355   -1.334322   -0.319238 O.2        1 UNL1     -0.2512
     56 C         -3.383509   -0.606519   1.247664 C.3        1 UNL1     0.0332
     57 C         -1.590386   2.096871   3.315503 C.3        1 UNL1     -0.0567
     58 C         1.681222   7.227642   -1.108654 C.3        1 UNL1     0.0210
     59 C         -1.204682   5.483202   3.034187 C.3        1 UNL1     0.0372
     60 C         0.544468   5.193413   0.64973 C.2        1 UNL1     -0.0208
     61 C         1.456544   5.637421   1.515592 C.2        1 UNL1     0.0882
     62 H         4.644689   2.805684   0.565693 H        1 UNL1     0.0365
     63 H         6.262522   3.728732   -0.271462 H        1 UNL1     0.0576
     64 H         8.304283   1.668304   -1.311956 H        1 UNL1     0.0615
     65 H         8.166072   4.785614   -1.457319 H        1 UNL1     0.0622
     66 H         -1.531986   5.265684   0.59267 H        1 UNL1     0.0645
     67 H         -1.932949   3.574749   -0.623954 H        1 UNL1     0.0362
     68 H         -2.571513   2.403421   1.118516 H        1 UNL1     0.0741
     69 H         -1.174902   0.440005   2.223443 H        1 UNL1     0.0359
     70 H         0.931985   0.682488   2.931781 H        1 UNL1     0.0600
     71 H         1.831013   -0.405643   1.284836 H        1 UNL1     0.0348
     72 H         3.347127   1.500515   1.282807 H        1 UNL1     0.0602
     73 H         0.647173   5.406819   -0.385238 H        1 UNL1     0.0628
     74 H         1.454803   5.412402   2.582645 H        1 UNL1     0.1022
     75 H         10.85762   2.515341   -3.535226 H        1 UNL1     0.0279
     76 H         10.692123   3.742715   -4.72664 H        1 UNL1     0.0279
     77 H         11.808747   3.925094   -3.314129 H        1 UNL1     0.0279
     78 H         8.914382   5.047791   -5.049539 H        1 UNL1     0.1553
     79 H         7.672412   3.543397   -4.702357 H        1 UNL1     0.1484
     80 H         3.936203   2.858893   -4.810471 H        1 UNL1     0.0317
     81 H         4.632004   4.40853   -5.262591 H        1 UNL1     0.0317
     82 H         6.558423   3.276493   -6.403252 H        1 UNL1     0.0428
     83 H         5.006908   2.774294   -7.037525 H        1 UNL1     0.0428
     84 H         6.873099   0.141095   -4.265029 H        1 UNL1     0.0428
     85 H         7.747074   1.577283   -4.668335 H        1 UNL1     0.0428
     86 H         6.475633   1.5926   -2.521697 H        1 UNL1     0.0317
     87 H         4.97709   1.342364   -3.292477 H        1 UNL1     0.0317
     88 H         7.176281   1.116172   -7.44134 H        1 UNL1     0.0429
     89 H         6.854986   -0.390511   -6.579417 H        1 UNL1     0.0429
     90 H         4.287571   0.452408   -7.365861 H        1 UNL1     0.0308
     91 H         6.252492   1.131467   -9.631424 H        1 UNL1     0.0233
     92 H         4.481531   1.01897   -9.794335 H        1 UNL1     0.0233
     93 H         5.199153   2.283014   -8.818725 H        1 UNL1     0.0233
     94 H         4.55022   -1.317316   -9.153633 H        1 UNL1     0.0233
     95 H         6.234136   -1.471469   -8.629236 H        1 UNL1     0.0233
     96 H         4.913435   -1.822368   -7.490549 H        1 UNL1     0.0233
     97 H         3.911204   10.588434   -0.001398 H        1 UNL1     0.0280
     98 H         5.504381   11.243639   -0.265368 H        1 UNL1     0.0280
     99 H         4.315462   11.236504   -1.601838 H        1 UNL1     0.0280
     100 H         6.426481   10.883658   -2.937751 H        1 UNL1     0.2922
     101 H         4.711005   0.946152   2.401219 H        1 UNL1     0.0236
     102 H         6.012027   2.198641   2.469585 H        1 UNL1     0.0236
     103 H         6.326844   0.599899   1.869241 H        1 UNL1     0.0236
     104 H         4.360072   -0.503816   1.223948 H        1 UNL1     0.2098
     105 H         0.700443   1.283159   -0.934704 H        1 UNL1     0.0234
     106 H         1.285519   -0.402484   -1.020662 H        1 UNL1     0.0234
     107 H         0.0   -0.0   0.0 H        1 UNL1     0.0234
     108 H         1.168358   3.235822   1.772184 H        1 UNL1     0.2098
     109 H         1.013423   3.071536   -0.822699 H        1 UNL1     0.0234
     110 H         -0.232982   2.324062   -1.871774 H        1 UNL1     0.0234
     111 H         -0.032644   4.040931   -1.839052 H        1 UNL1     0.0234
     112 H         -3.456126   -1.677057   1.46219 H        1 UNL1     0.0342
     113 H         -3.149143   -0.04241   2.149161 H        1 UNL1     0.0342
     114 H         -4.365075   -0.267638   0.888704 H        1 UNL1     0.0342
     115 H         -2.656625   1.834559   3.354436 H        1 UNL1     0.0234
     116 H         -1.145327   1.804649   4.268696 H        1 UNL1     0.0234
     117 H         -1.642923   3.198875   3.287789 H        1 UNL1     0.0234
     118 H         0.772173   7.684631   -0.679939 H        1 UNL1     0.0309
     119 H         2.027303   7.838581   -1.948405 H        1 UNL1     0.0309
     120 H         1.312251   6.293143   -1.545321 H        1 UNL1     0.0309
     121 H         -0.383238   6.191335   2.928672 H        1 UNL1     0.0524
     122 H         -2.1186   5.977491   2.664769 H        1 UNL1     0.0524
     123 H         -1.342859   5.222488   4.079667 H        1 UNL1     0.0524
@<TRIPOS>BOND
     1     1     2    1
     2     1    42    1
     3     2     3    2
     4     3     4    1
     5     4     5    2
     6     5     7    1
     7     6    75    1
     8     6    76    1
     9     6    77    1
    10     7     9   am
    11     9    10    1
    12    10    11    2
    13    10    43    1
    14    11    14    1
    15    11    15    1
    16    12    13   ar
    17    12    27   ar
    18    12    43    1
    19    13    14    1
    20    13    30   ar
    21    14    17    2
    22    15    16    1
    23    16    17    1
    24    16    18    1
    25    16    22    1
    26    18    19    1
    27    19    20    1
    28    20    21    1
    29    21    22    1
    30    23    24    1
    31    23    88    1
    32    23    89    1
    33    24    25    1
    34    24    26    1
    35    24    90    1
    36    25    91    1
    37    25    92    1
    38    25    93    1
    39    26    94    1
    40    26    95    1
    41    26    96    1
    42    27    28   ar
    43    28    29   ar
    44    29    30   ar
    45    29    31    1
    46    30    33    1
    47    31    32    1
    48    32    33    1
    49    32    35    1
    50    34    97    1
    51    34    98    1
    52    34    99    1
    53    35    61    1
    54    36    37    1
    55    36    60    1
    56    37    38    1
    57    38    39    1
    58    39    40    1
    59    40    41    1
    60    41    42    1
    61    45   100    1
    62    47   101    1
    63    47   102    1
    64    47   103    1
    65    48   104    1
    66    49   105    1
    67    49   106    1
    68    49   107    1
    69    50   108    1
    70    51    59    1
    71    52   109    1
    72    52   110    1
    73    52   111    1
    74    53    54    1
    75    54    55    2
    76    54    56    1
    77    56   112    1
    78    56   113    1
    79    56   114    1
    80    57   115    1
    81    57   116    1
    82    57   117    1
    83    58   118    1
    84    58   119    1
    85    58   120    1
    86    59   121    1
    87    59   122    1
    88    59   123    1
    89    60    61    2
    90     1    47    1
    91     1    62    1
    92     2    63    1
    93     3    64    1
    94     4    65    1
    95     5     6    1
    96     7     8    2
    97     9    78    1
    98    15    79    1
    99    18    80    1
   100    18    81    1
   101    19    82    1
   102    19    83    1
   103    20    23    1
   104    21    84    1
   105    21    85    1
   106    22    86    1
   107    22    87    1
   108    27    45    1
   109    28    34    1
   110    32    58    1
   111    33    46    2
   112    36    51    1
   113    36    66    1
   114    37    52    1
   115    37    67    1
   116    38    53    1
   117    38    68    1
   118    42    48    1
   119    42    72    1
   120    43    44    2
   121    60    73    1
   122    61    74    1
   123    39    69    1
   124    39    57    1
   125    40    70    1
   126    40    50    1
   127    41    71    1
   128    41    49    1
