@<TRIPOS>MOLECULE
*****
 123 128 0 0 0
SMALL
GASTEIGER

@<TRIPOS>ATOM
     1 C         1.048702   -3.400774   -4.147777 C.3        1 UNL1     0.0009
     2 C         0.421593   -4.850944   -5.117714 C.2        1 UNL1     -0.0787
     3 C         0.481429   -6.25795   -5.453571 C.2        1 UNL1     -0.0649
     4 C         -0.562978   -7.133277   -6.458248 C.2        1 UNL1     -0.0542
     5 C         -1.034608   -8.424966   -6.799102 C.2        1 UNL1     0.0115
     6 C         -0.795177   -9.945655   -6.590532 C.3        1 UNL1     -0.0348
     7 C         -2.411312   -8.559383   -7.613722 C.2        1 UNL1     0.2441
     8 O         -2.454263   -8.789158   -8.814507 O.2        1 UNL1     -0.2702
     9 N         -3.562607   -8.655483   -6.812825 N.am        1 UNL1     -0.2772
     10 C         -4.048728   -7.402358   -6.518402 C.2        1 UNL1     0.1049
     11 C         -3.475458   -6.77897   -5.505006 C.2        1 UNL1     0.0801
     12 C         -4.661254   -5.215527   -7.567171 C.ar        1 UNL1     0.0753
     13 C         -3.851101   -4.596245   -6.562806 C.ar        1 UNL1     0.0305
     14 C         -3.33898   -5.350111   -5.420672 C.2        1 UNL1     0.0924
     15 N         -2.629483   -7.24575   -4.570676 N.pl3        1 UNL1     -0.3170
     16 C         -2.436997   -6.206957   -3.59389 C.3        1 UNL1     0.1275
     17 N         -2.664446   -4.924515   -4.356342 N.2        1 UNL1     -0.2557
     18 C         -3.58166   -6.311889   -2.590677 C.3        1 UNL1     0.0016
     19 C         -3.596922   -7.71928   -2.015691 C.3        1 UNL1     0.0026
     20 N         -2.314239   -7.977153   -1.375961 N.3        1 UNL1     -0.3018
     21 C         -1.145814   -7.839608   -2.247874 C.3        1 UNL1     0.0026
     22 C         -1.147816   -6.417259   -2.810734 C.3        1 UNL1     0.0016
     23 C         -2.327586   -9.163618   -0.543635 C.3        1 UNL1     0.0012
     24 C         -1.594207   -10.319645   -1.241857 C.3        1 UNL1     -0.0339
     25 C         -0.47562   -9.802336   -2.161211 C.3        1 UNL1     -0.0615
     26 C         -1.061519   -11.29773   -0.209204 C.3        1 UNL1     -0.0615
     27 C         -5.245242   -4.466856   -8.586273 C.ar        1 UNL1     0.1347
     28 C         -5.123873   -3.09203   -8.682047 C.ar        1 UNL1     0.0342
     29 C         -4.281759   -2.510219   -7.710705 C.ar        1 UNL1     0.1435
     30 C         -3.660855   -3.252359   -6.705257 C.ar        1 UNL1     0.0774
     31 O         -4.150149   -1.169976   -7.603782 O.3        1 UNL1     -0.4436
     32 C         -3.63908   -0.960325   -6.278743 C.3        1 UNL1     0.3143
     33 C         -2.969658   -2.266268   -5.901119 C.2        1 UNL1     0.2504
     34 C         -5.919814   -2.197863   -9.591466 C.3        1 UNL1     -0.0327
     35 O         -2.60472   0.026884   -6.372388 O.2        1 UNL1     -0.4528
     36 C         -2.617567   1.865805   -3.051802 C.3        1 UNL1     0.0854
     37 C         -2.440152   1.290948   -1.593863 C.3        1 UNL1     0.0236
     38 C         -1.26511   1.968701   -0.738485 C.3        1 UNL1     0.1131
     39 C         0.184534   2.095879   -1.358668 C.3        1 UNL1     0.0200
     40 C         0.862032   0.819414   -2.191778 C.3        1 UNL1     0.0661
     41 C         0.946441   -0.786559   -1.652021 C.3        1 UNL1     0.0091
     42 C         0.898613   -2.361703   -2.59119 C.3        1 UNL1     0.0661
     43 C         -4.932507   -6.668668   -7.436545 C.2        1 UNL1     0.2131
     44 O         -5.880854   -7.225944   -7.958865 O.2        1 UNL1     -0.2851
     45 O         -5.981441   -5.152846   -9.550051 O.3        1 UNL1     -0.5056
     46 O         -2.056443   -2.448782   -5.127438 O.2        1 UNL1     -0.2836
     47 C         2.408577   -2.917095   -4.719419 C.3        1 UNL1     -0.0566
     48 O         2.065454   -2.948224   -1.888629 O.3        1 UNL1     -0.3909
     49 C         0.022805   -0.951895   -0.465827 C.3        1 UNL1     -0.0577
     50 O         0.483765   0.852317   -3.553231 O.3        1 UNL1     -0.3910
     51 O         -1.624759   2.769091   -3.482893 O.3        1 UNL1     -0.3753
     52 C         -2.732886   -0.243872   -1.533999 C.3        1 UNL1     -0.0564
     53 O         -1.339472   1.665885   0.72954 O.3        1 UNL1     -0.4608
     54 C         -1.556604   2.586353   1.721267 C.2        1 UNL1     0.3042
     55 O         -2.630861   2.883382   2.242404 O.2        1 UNL1     -0.2512
     56 C         -0.298748   3.233263   2.22725 C.3        1 UNL1     0.0332
     57 C         0.307544   3.555024   -2.002049 C.3        1 UNL1     -0.0567
     58 C         -4.868041   -0.747087   -5.36457 C.3        1 UNL1     0.0210
     59 C         -2.009568   4.14269   -3.451082 C.3        1 UNL1     0.0372
     60 C         -2.75659   0.838859   -4.120079 C.2        1 UNL1     -0.0208
     61 C         -2.186218   0.760246   -5.323091 C.2        1 UNL1     0.0882
     62 H         0.274565   -2.778992   -4.613406 H        1 UNL1     0.0365
     63 H         -0.318855   -4.364178   -5.755888 H        1 UNL1     0.0576
     64 H         1.150717   -6.943659   -4.9292 H        1 UNL1     0.0615
     65 H         -1.12511   -6.359107   -6.987542 H        1 UNL1     0.0622
     66 H         -3.576716   2.401729   -3.022367 H        1 UNL1     0.0645
     67 H         -3.336173   1.645185   -1.055139 H        1 UNL1     0.0362
     68 H         -1.64949   2.998524   -0.681572 H        1 UNL1     0.0741
     69 H         0.892862   2.258664   -0.557306 H        1 UNL1     0.0359
     70 H         1.923326   1.133603   -2.191899 H        1 UNL1     0.0600
     71 H         1.936599   -0.771873   -1.155707 H        1 UNL1     0.0348
     72 H         1.166359   -1.582429   -3.319448 H        1 UNL1     0.0602
     73 H         -3.525998   0.158089   -3.852102 H        1 UNL1     0.0628
     74 H         -1.352708   1.381709   -5.652154 H        1 UNL1     0.1022
     75 H         -0.709117   -10.467472   -7.574064 H        1 UNL1     0.0279
     76 H         0.130686   -10.227384   -6.094068 H        1 UNL1     0.0279
     77 H         -1.663697   -10.456341   -6.149429 H        1 UNL1     0.0279
     78 H         -3.329421   -9.108429   -5.931609 H        1 UNL1     0.1553
     79 H         -2.517335   -8.219909   -4.357673 H        1 UNL1     0.1484
     80 H         -3.438787   -5.559887   -1.805281 H        1 UNL1     0.0317
     81 H         -4.541865   -6.088264   -3.067803 H        1 UNL1     0.0317
     82 H         -3.812555   -8.472274   -2.78797 H        1 UNL1     0.0428
     83 H         -4.421606   -7.77267   -1.304288 H        1 UNL1     0.0428
     84 H         -0.191835   -7.959924   -1.725132 H        1 UNL1     0.0428
     85 H         -1.123123   -8.614772   -3.026285 H        1 UNL1     0.0428
     86 H         -0.215104   -6.31124   -3.333034 H        1 UNL1     0.0317
     87 H         -1.064933   -5.690659   -1.993251 H        1 UNL1     0.0317
     88 H         -1.802107   -8.930581   0.391705 H        1 UNL1     0.0429
     89 H         -3.352298   -9.450097   -0.274062 H        1 UNL1     0.0429
     90 H         -2.311107   -10.885509   -1.848541 H        1 UNL1     0.0308
     91 H         -0.821811   -9.708661   -3.194884 H        1 UNL1     0.0233
     92 H         -0.109681   -8.832435   -1.816263 H        1 UNL1     0.0233
     93 H         0.39457   -10.469699   -2.176403 H        1 UNL1     0.0233
     94 H         -0.512703   -12.106839   -0.703147 H        1 UNL1     0.0233
     95 H         -0.371536   -10.7869   0.468246 H        1 UNL1     0.0233
     96 H         -1.871814   -11.738263   0.378437 H        1 UNL1     0.0233
     97 H         -6.835699   -2.672765   -9.930365 H        1 UNL1     0.0280
     98 H         -6.229132   -1.270095   -9.092642 H        1 UNL1     0.0280
     99 H         -5.315913   -1.940446   -10.47698 H        1 UNL1     0.0280
     100 H         -5.726474   -6.050488   -9.671928 H        1 UNL1     0.2922
     101 H         2.978127   -3.771044   -5.085534 H        1 UNL1     0.0236
     102 H         2.98087   -2.316087   -4.013549 H        1 UNL1     0.0236
     103 H         2.279628   -2.267794   -5.601448 H        1 UNL1     0.0236
     104 H         1.739933   -3.346018   -1.057506 H        1 UNL1     0.2098
     105 H         -0.998269   -1.219738   -0.725595 H        1 UNL1     0.0234
     106 H         0.399175   -1.611573   0.3159 H        1 UNL1     0.0234
     107 H         0.0   0.0   0.0 H        1 UNL1     0.0234
     108 H         -0.449142   0.567598   -3.602082 H        1 UNL1     0.2098
     109 H         -2.186838   -0.801966   -2.307351 H        1 UNL1     0.0234
     110 H         -2.528064   -0.683099   -0.551721 H        1 UNL1     0.0234
     111 H         -3.795706   -0.46019   -1.705947 H        1 UNL1     0.0234
     112 H         -0.314494   3.272883   3.320652 H        1 UNL1     0.0342
     113 H         0.595586   2.726732   1.867479 H        1 UNL1     0.0342
     114 H         -0.269637   4.265938   1.853217 H        1 UNL1     0.0342
     115 H         -0.316166   4.288603   -1.472865 H        1 UNL1     0.0234
     116 H         1.326749   3.945883   -2.024369 H        1 UNL1     0.0234
     117 H         -0.105211   3.62169   -3.023387 H        1 UNL1     0.0234
     118 H         -4.888735   -1.462762   -4.524101 H        1 UNL1     0.0309
     119 H         -4.938105   0.271367   -4.969546 H        1 UNL1     0.0309
     120 H         -5.81478   -0.937509   -5.881806 H        1 UNL1     0.0309
     121 H         -2.247484   4.442139   -4.471417 H        1 UNL1     0.0524
     122 H         -2.910119   4.310771   -2.837247 H        1 UNL1     0.0524
     123 H         -1.198542   4.751285   -3.061283 H        1 UNL1     0.0524
@<TRIPOS>BOND
     1     1     2    1
     2     1    42    1
     3     2     3    2
     4     3     4    1
     5     4     5    2
     6     5     7    1
     7     6    75    1
     8     6    76    1
     9     6    77    1
    10     7     9   am
    11     9    10    1
    12    10    11    2
    13    10    43    1
    14    11    14    1
    15    11    15    1
    16    12    13   ar
    17    12    27   ar
    18    12    43    1
    19    13    14    1
    20    13    30   ar
    21    14    17    2
    22    15    16    1
    23    16    17    1
    24    16    18    1
    25    16    22    1
    26    18    19    1
    27    19    20    1
    28    20    21    1
    29    21    22    1
    30    23    24    1
    31    23    88    1
    32    23    89    1
    33    24    25    1
    34    24    26    1
    35    24    90    1
    36    25    91    1
    37    25    92    1
    38    25    93    1
    39    26    94    1
    40    26    95    1
    41    26    96    1
    42    27    28   ar
    43    28    29   ar
    44    29    30   ar
    45    29    31    1
    46    30    33    1
    47    31    32    1
    48    32    33    1
    49    32    35    1
    50    34    97    1
    51    34    98    1
    52    34    99    1
    53    35    61    1
    54    36    37    1
    55    36    60    1
    56    37    38    1
    57    38    39    1
    58    39    40    1
    59    40    41    1
    60    41    42    1
    61    45   100    1
    62    47   101    1
    63    47   102    1
    64    47   103    1
    65    48   104    1
    66    49   105    1
    67    49   106    1
    68    49   107    1
    69    50   108    1
    70    51    59    1
    71    52   109    1
    72    52   110    1
    73    52   111    1
    74    53    54    1
    75    54    55    2
    76    54    56    1
    77    56   112    1
    78    56   113    1
    79    56   114    1
    80    57   115    1
    81    57   116    1
    82    57   117    1
    83    58   118    1
    84    58   119    1
    85    58   120    1
    86    59   121    1
    87    59   122    1
    88    59   123    1
    89    60    61    2
    90     1    47    1
    91     1    62    1
    92     2    63    1
    93     3    64    1
    94     4    65    1
    95     5     6    1
    96     7     8    2
    97     9    78    1
    98    15    79    1
    99    18    80    1
   100    18    81    1
   101    19    82    1
   102    19    83    1
   103    20    23    1
   104    21    84    1
   105    21    85    1
   106    22    86    1
   107    22    87    1
   108    27    45    1
   109    28    34    1
   110    32    58    1
   111    33    46    2
   112    36    51    1
   113    36    66    1
   114    37    52    1
   115    37    67    1
   116    38    53    1
   117    38    68    1
   118    42    48    1
   119    42    72    1
   120    43    44    2
   121    60    73    1
   122    61    74    1
   123    39    69    1
   124    39    57    1
   125    40    70    1
   126    40    50    1
   127    41    71    1
   128    41    49    1
