@<TRIPOS>MOLECULE
*****
 123 128 0 0 0
SMALL
GASTEIGER

@<TRIPOS>ATOM
     1 C         4.972065   2.238506   0.5286 C.3        1 UNL1     0.0009
     2 C         6.359197   3.11562   -0.333707 C.2        1 UNL1     -0.0787
     3 C         7.671385   3.09428   -0.945059 C.2        1 UNL1     -0.0649
     4 C         8.457211   4.348946   -1.766429 C.2        1 UNL1     -0.0542
     5 C         9.48294   4.668668   -2.689866 C.2        1 UNL1     0.0115
     6 C         10.701271   4.093755   -3.463474 C.3        1 UNL1     -0.0348
     7 C         9.460894   6.103507   -3.409407 C.2        1 UNL1     0.2441
     8 O         10.185563   7.029025   -3.070591 O.2        1 UNL1     -0.2702
     9 N         8.744068   6.145385   -4.617943 N.am        1 UNL1     -0.2772
     10 C         7.418138   6.426046   -4.380326 C.2        1 UNL1     0.1049
     11 C         6.657955   5.400814   -4.04085 C.2        1 UNL1     0.0801
     12 C         5.91353   7.999199   -3.147979 C.ar        1 UNL1     0.0753
     13 C         5.248086   6.839129   -2.638047 C.ar        1 UNL1     0.0305
     14 C         5.516736   5.506023   -3.172561 C.2        1 UNL1     0.0924
     15 N         6.914088   4.082247   -4.088855 N.pl3        1 UNL1     -0.3170
     16 C         5.695515   3.386082   -3.771544 C.3        1 UNL1     0.1275
     17 N         4.92984   4.345573   -2.893568 N.2        1 UNL1     -0.2557
     18 C         4.894719   3.263978   -5.064416 C.3        1 UNL1     0.0016
     19 C         5.758449   2.573892   -6.108132 C.3        1 UNL1     0.0026
     20 N         6.143136   1.262724   -5.604264 N.3        1 UNL1     -0.3018
     21 C         6.865676   1.273589   -4.330613 C.3        1 UNL1     0.0026
     22 C         5.977916   1.96711   -3.295816 C.3        1 UNL1     0.0016
     23 C         6.7104   0.408988   -6.628955 C.3        1 UNL1     0.0012
     24 C         5.626457   -0.027718   -7.62701 C.3        1 UNL1     -0.0339
     25 C         5.852227   0.599457   -9.012556 C.3        1 UNL1     -0.0615
     26 C         5.568157   -1.543537   -7.702329 C.3        1 UNL1     -0.0615
     27 C         5.565719   9.277854   -2.718808 C.ar        1 UNL1     0.1347
     28 C         4.545785   9.523588   -1.816921 C.ar        1 UNL1     0.0342
     29 C         3.937605   8.363711   -1.291596 C.ar        1 UNL1     0.1435
     30 C         4.300058   7.074903   -1.685068 C.ar        1 UNL1     0.0774
     31 O         2.855626   8.438461   -0.486153 O.3        1 UNL1     -0.4436
     32 C         2.262166   7.133056   -0.553955 C.3        1 UNL1     0.3143
     33 C         3.387507   6.207412   -0.969893 C.2        1 UNL1     0.2504
     34 C         3.951839   10.868381   -1.502498 C.3        1 UNL1     -0.0327
     35 O         1.89018   6.764442   0.779837 O.2        1 UNL1     -0.4528
     36 C         -1.133002   4.496282   0.427833 C.3        1 UNL1     0.0854
     37 C         -1.278029   3.14695   -0.37578 C.3        1 UNL1     0.0236
     38 C         -1.787352   1.896436   0.489407 C.3        1 UNL1     0.1131
     39 C         -1.06925   1.540684   1.853239 C.3        1 UNL1     0.0200
     40 C         0.595046   1.563771   1.962895 C.3        1 UNL1     0.0661
     41 C         1.671948   0.806767   0.892925 C.3        1 UNL1     0.0091
     42 C         3.359026   1.292428   0.360661 C.3        1 UNL1     0.0661
     43 C         6.92531   7.801654   -4.21547 C.2        1 UNL1     0.2131
     44 O         7.266977   8.677479   -4.989376 O.2        1 UNL1     -0.2851
     45 O         6.293444   10.350261   -3.230469 O.3        1 UNL1     -0.5056
     46 O         3.513394   5.024856   -0.742809 O.2        1 UNL1     -0.2836
     47 C         5.34711   1.961262   2.009295 C.3        1 UNL1     -0.0566
     48 O         3.93708   -0.057011   0.570384 O.3        1 UNL1     -0.3909
     49 C         0.916689   0.398925   -0.352363 C.3        1 UNL1     -0.0577
     50 O         1.058617   2.861427   2.277403 O.3        1 UNL1     -0.3910
     51 O         -1.29659   4.401907   1.824888 O.3        1 UNL1     -0.3753
     52 C         -0.175564   3.003193   -1.47526 C.3        1 UNL1     -0.0564
     53 O         -2.249204   0.737361   -0.344597 O.3        1 UNL1     -0.4608
     54 C         -2.36827   -0.557007   0.089414 C.2        1 UNL1     0.3042
     55 O         -1.486306   -1.413707   0.134609 O.2        1 UNL1     -0.2512
     56 C         -3.73745   -0.894031   0.607559 C.3        1 UNL1     0.0332
     57 C         -1.903416   2.229271   3.031454 C.3        1 UNL1     -0.0567
     58 C         1.214854   7.187187   -1.690501 C.3        1 UNL1     0.0210
     59 C         -2.511614   4.958177   2.325035 C.3        1 UNL1     0.0372
     60 C         0.138006   5.234338   0.193376 C.2        1 UNL1     -0.0208
     61 C         0.96769   5.822776   1.055995 C.2        1 UNL1     0.0882
     62 H         4.400676   3.17454   0.520491 H        1 UNL1     0.0365
     63 H         5.988891   4.142855   -0.322222 H        1 UNL1     0.0576
     64 H         8.228559   2.163425   -1.072235 H        1 UNL1     0.0615
     65 H         7.870431   5.23543   -1.510854 H        1 UNL1     0.0622
     66 H         -1.932168   5.139637   0.033529 H        1 UNL1     0.0645
     67 H         -2.142854   3.321649   -1.039194 H        1 UNL1     0.0362
     68 H         -2.785887   2.263015   0.772374 H        1 UNL1     0.0741
     69 H         -1.310141   0.519606   2.117398 H        1 UNL1     0.0359
     70 H         0.732592   0.986866   2.897412 H        1 UNL1     0.0600
     71 H         1.795352   -0.169533   1.40142 H        1 UNL1     0.0348
     72 H         3.165789   1.841039   1.293935 H        1 UNL1     0.0602
     73 H         0.279814   5.362664   -0.850976 H        1 UNL1     0.0628
     74 H         0.925571   5.693606   2.13802 H        1 UNL1     0.1022
     75 H         10.797509   2.995899   -3.283241 H        1 UNL1     0.0279
     76 H         10.65724   4.149999   -4.548815 H        1 UNL1     0.0279
     77 H         11.662819   4.462038   -3.076831 H        1 UNL1     0.0279
     78 H         8.787887   5.236096   -5.073301 H        1 UNL1     0.1553
     79 H         7.642663   3.676345   -4.646848 H        1 UNL1     0.1484
     80 H         3.977679   2.696591   -4.864726 H        1 UNL1     0.0317
     81 H         4.581259   4.249526   -5.425092 H        1 UNL1     0.0317
     82 H         6.643425   3.174195   -6.365749 H        1 UNL1     0.0428
     83 H         5.168851   2.498755   -7.022341 H        1 UNL1     0.0428
     84 H         7.072426   0.274285   -3.935065 H        1 UNL1     0.0428
     85 H         7.859152   1.732731   -4.428139 H        1 UNL1     0.0428
     86 H         6.477427   1.839047   -2.353438 H        1 UNL1     0.0317
     87 H         5.044433   1.405855   -3.166595 H        1 UNL1     0.0317
     88 H         7.472226   0.985087   -7.170273 H        1 UNL1     0.0429
     89 H         7.216633   -0.459818   -6.188868 H        1 UNL1     0.0429
     90 H         4.645807   0.291615   -7.254767 H        1 UNL1     0.0308
     91 H         6.898014   0.513438   -9.322446 H        1 UNL1     0.0233
     92 H         5.215886   0.121703   -9.761174 H        1 UNL1     0.0233
     93 H         5.600895   1.666797   -9.033813 H        1 UNL1     0.0233
     94 H         5.109235   -1.857436   -8.646094 H        1 UNL1     0.0233
     95 H         6.579199   -1.958669   -7.664623 H        1 UNL1     0.0233
     96 H         4.983839   -1.961856   -6.877981 H        1 UNL1     0.0233
     97 H         2.885597   10.900488   -1.705786 H        1 UNL1     0.0280
     98 H         4.063847   11.132727   -0.442861 H        1 UNL1     0.0280
     99 H         4.443861   11.641487   -2.115129 H        1 UNL1     0.0280
     100 H         5.959268   10.700734   -4.037388 H        1 UNL1     0.2922
     101 H         4.442592   1.783487   2.590586 H        1 UNL1     0.0236
     102 H         5.968111   2.741817   2.44756 H        1 UNL1     0.0236
     103 H         5.937669   1.036596   2.12077 H        1 UNL1     0.0236
     104 H         4.251091   -0.102989   1.494643 H        1 UNL1     0.2098
     105 H         0.685099   1.219934   -1.026249 H        1 UNL1     0.0234
     106 H         1.36185   -0.428775   -0.904334 H        1 UNL1     0.0234
     107 H         0.0   -0.0   0.0 H        1 UNL1     0.0234
     108 H         0.967147   3.405404   1.471493 H        1 UNL1     0.2098
     109 H         -0.223256   3.809797   -2.220127 H        1 UNL1     0.0234
     110 H         0.837729   2.944062   -1.063574 H        1 UNL1     0.0234
     111 H         -0.287869   2.068879   -2.041289 H        1 UNL1     0.0234
     112 H         -4.049427   -1.871198   0.226559 H        1 UNL1     0.0342
     113 H         -3.781966   -0.866402   1.695262 H        1 UNL1     0.0342
     114 H         -4.443013   -0.143013   0.226353 H        1 UNL1     0.0342
     115 H         -2.970296   1.971544   2.981142 H        1 UNL1     0.0234
     116 H         -1.550857   1.974186   4.032794 H        1 UNL1     0.0234
     117 H         -1.946141   3.329424   2.955423 H        1 UNL1     0.0234
     118 H         0.181694   7.13074   -1.305274 H        1 UNL1     0.0309
     119 H         1.313121   8.074906   -2.323352 H        1 UNL1     0.0309
     120 H         1.280649   6.32578   -2.364116 H        1 UNL1     0.0309
     121 H         -2.339351   5.248609   3.361052 H        1 UNL1     0.0524
     122 H         -2.816007   5.862885   1.77287 H        1 UNL1     0.0524
     123 H         -3.311494   4.225254   2.269259 H        1 UNL1     0.0524
@<TRIPOS>BOND
     1     1     2    1
     2     1    42    1
     3     2     3    2
     4     3     4    1
     5     4     5    2
     6     5     7    1
     7     6    75    1
     8     6    76    1
     9     6    77    1
    10     7     9   am
    11     9    10    1
    12    10    11    2
    13    10    43    1
    14    11    14    1
    15    11    15    1
    16    12    13   ar
    17    12    27   ar
    18    12    43    1
    19    13    14    1
    20    13    30   ar
    21    14    17    2
    22    15    16    1
    23    16    17    1
    24    16    18    1
    25    16    22    1
    26    18    19    1
    27    19    20    1
    28    20    21    1
    29    21    22    1
    30    23    24    1
    31    23    88    1
    32    23    89    1
    33    24    25    1
    34    24    26    1
    35    24    90    1
    36    25    91    1
    37    25    92    1
    38    25    93    1
    39    26    94    1
    40    26    95    1
    41    26    96    1
    42    27    28   ar
    43    28    29   ar
    44    29    30   ar
    45    29    31    1
    46    30    33    1
    47    31    32    1
    48    32    33    1
    49    32    35    1
    50    34    97    1
    51    34    98    1
    52    34    99    1
    53    35    61    1
    54    36    37    1
    55    36    60    1
    56    37    38    1
    57    38    39    1
    58    39    40    1
    59    40    41    1
    60    41    42    1
    61    45   100    1
    62    47   101    1
    63    47   102    1
    64    47   103    1
    65    48   104    1
    66    49   105    1
    67    49   106    1
    68    49   107    1
    69    50   108    1
    70    51    59    1
    71    52   109    1
    72    52   110    1
    73    52   111    1
    74    53    54    1
    75    54    55    2
    76    54    56    1
    77    56   112    1
    78    56   113    1
    79    56   114    1
    80    57   115    1
    81    57   116    1
    82    57   117    1
    83    58   118    1
    84    58   119    1
    85    58   120    1
    86    59   121    1
    87    59   122    1
    88    59   123    1
    89    60    61    2
    90     1    47    1
    91     1    62    1
    92     2    63    1
    93     3    64    1
    94     4    65    1
    95     5     6    1
    96     7     8    2
    97     9    78    1
    98    15    79    1
    99    18    80    1
   100    18    81    1
   101    19    82    1
   102    19    83    1
   103    20    23    1
   104    21    84    1
   105    21    85    1
   106    22    86    1
   107    22    87    1
   108    27    45    1
   109    28    34    1
   110    32    58    1
   111    33    46    2
   112    36    51    1
   113    36    66    1
   114    37    52    1
   115    37    67    1
   116    38    53    1
   117    38    68    1
   118    42    48    1
   119    42    72    1
   120    43    44    2
   121    60    73    1
   122    61    74    1
   123    39    69    1
   124    39    57    1
   125    40    70    1
   126    40    50    1
   127    41    71    1
   128    41    49    1
