@<TRIPOS>MOLECULE
*****
 123 128 0 0 0
SMALL
GASTEIGER

@<TRIPOS>ATOM
     1 C         5.219311   1.445867   0.817023 C.3        1 UNL1     0.0009
     2 C         6.757097   2.146176   0.054252 C.2        1 UNL1     -0.0787
     3 C         8.072783   1.957216   -0.519605 C.2        1 UNL1     -0.0649
     4 C         9.073522   3.12121   -1.233745 C.2        1 UNL1     -0.0542
     5 C         10.170922   3.332205   -2.104533 C.2        1 UNL1     0.0115
     6 C         11.314837   2.62203   -2.879409 C.3        1 UNL1     -0.0348
     7 C         10.397911   4.793882   -2.728202 C.2        1 UNL1     0.2441
     8 O         11.243044   5.572478   -2.308603 O.2        1 UNL1     -0.2702
     9 N         9.742985   5.020587   -3.951243 N.am        1 UNL1     -0.2772
     10 C         8.468036   5.490045   -3.733442 C.2        1 UNL1     0.1049
     11 C         7.54646   4.577498   -3.484089 C.2        1 UNL1     0.0801
     12 C         7.177752   7.201204   -2.443313 C.ar        1 UNL1     0.0753
     13 C         6.322391   6.13057   -2.030142 C.ar        1 UNL1     0.0305
     14 C         6.402647   4.806817   -2.643564 C.2        1 UNL1     0.0924
     15 N         7.597942   3.240485   -3.611656 N.pl3        1 UNL1     -0.3170
     16 C         6.275365   2.725326   -3.375743 C.3        1 UNL1     0.1275
     17 N         5.633634   3.737561   -2.458527 N.2        1 UNL1     -0.2557
     18 C         5.515494   2.808614   -4.696107 C.3        1 UNL1     0.0016
     19 C         6.301916   2.056715   -5.758076 C.3        1 UNL1     0.0026
     20 N         6.460297   0.673388   -5.331051 N.3        1 UNL1     -0.3018
     21 C         7.126496   0.493831   -4.039421 C.3        1 UNL1     0.0026
     22 C         6.317221   1.253414   -2.986805 C.3        1 UNL1     0.0016
     23 C         6.928062   -0.194672   -6.393271 C.3        1 UNL1     0.0012
     24 C         5.828842   -0.395192   -7.448383 C.3        1 UNL1     -0.0339
     25 C         5.994833   0.579721   -8.625689 C.3        1 UNL1     -0.0615
     26 C         5.813897   -1.839892   -7.916784 C.3        1 UNL1     -0.0615
     27 C         7.014987   8.490045   -1.940805 C.ar        1 UNL1     0.1347
     28 C         6.011292   8.836907   -1.05405 C.ar        1 UNL1     0.0342
     29 C         5.211907   7.75658   -0.623885 C.ar        1 UNL1     0.1435
     30 C         5.386195   6.453272   -1.091039 C.ar        1 UNL1     0.0774
     31 O         4.124298   7.95043   0.153633 O.3        1 UNL1     -0.4436
     32 C         3.339761   6.76036   -0.016978 C.3        1 UNL1     0.3143
     33 C         4.32409   5.697226   -0.460886 C.2        1 UNL1     0.2504
     34 C         5.620111   10.236382   -0.668633 C.3        1 UNL1     -0.0327
     35 O         2.864531   6.374083   1.278476 O.2        1 UNL1     -0.4528
     36 C         -0.456381   4.631835   0.691785 C.3        1 UNL1     0.0854
     37 C         -0.776731   3.373074   -0.202877 C.3        1 UNL1     0.0236
     38 C         -1.505517   2.167303   0.563106 C.3        1 UNL1     0.1131
     39 C         -0.903667   1.621534   1.920376 C.3        1 UNL1     0.0200
     40 C         0.738854   1.377558   2.07861 C.3        1 UNL1     0.0661
     41 C         1.726435   0.52797   0.992104 C.3        1 UNL1     0.0091
     42 C         3.487365   0.775448   0.541235 C.3        1 UNL1     0.0661
     43 C         8.187175   6.913182   -3.492297 C.2        1 UNL1     0.2131
     44 O         8.68918   7.770223   -4.196718 O.2        1 UNL1     -0.2851
     45 O         7.918392   9.46463   -2.35971 O.3        1 UNL1     -0.5056
     46 O         4.257395   4.497944   -0.308808 O.2        1 UNL1     -0.2836
     47 C         5.49008   1.024007   2.286275 C.3        1 UNL1     -0.0566
     48 O         3.842039   -0.65796   0.677851 O.3        1 UNL1     -0.3909
     49 C         0.965654   0.319559   -0.298351 C.3        1 UNL1     -0.0577
     50 O         1.384496   2.565302   2.491083 O.3        1 UNL1     -0.3910
     51 O         -0.686013   4.479506   2.074354 O.3        1 UNL1     -0.3753
     52 C         0.331744   3.125851   -1.27764 C.3        1 UNL1     -0.0564
     53 O         -2.10818   1.147461   -0.358332 O.3        1 UNL1     -0.4608
     54 C         -2.432187   -0.139562   -0.016981 C.2        1 UNL1     0.3042
     55 O         -1.892607   -1.17415   -0.407263 O.2        1 UNL1     -0.2512
     56 C         -3.541327   -0.233108   0.991865 C.3        1 UNL1     0.0332
     57 C         -1.666289   2.359168   3.117238 C.3        1 UNL1     -0.0567
     58 C         2.357672   7.046417   -1.176807 C.3        1 UNL1     0.0210
     59 C         -1.006826   5.686031   2.765182 C.3        1 UNL1     0.0372
     60 C         0.921246   5.175066   0.542767 C.2        1 UNL1     -0.0208
     61 C         1.798016   5.573128   1.46557 C.2        1 UNL1     0.0882
     62 H         4.799765   2.458435   0.854423 H        1 UNL1     0.0365
     63 H         6.549388   3.21604   0.122929 H        1 UNL1     0.0576
     64 H         8.484281   0.960192   -0.692002 H        1 UNL1     0.0615
     65 H         8.62103   4.071319   -0.93705 H        1 UNL1     0.0622
     66 H         -1.131114   5.414917   0.318204 H        1 UNL1     0.0645
     67 H         -1.578209   3.720738   -0.877653 H        1 UNL1     0.0362
     68 H         -2.445723   2.667546   0.841119 H        1 UNL1     0.0741
     69 H         -1.309016   0.636509   2.109651 H        1 UNL1     0.0359
     70 H         0.749894   0.730564   2.976574 H        1 UNL1     0.0600
     71 H         1.678288   -0.484679   1.4384 H        1 UNL1     0.0348
     72 H         3.345352   1.289806   1.502788 H        1 UNL1     0.0602
     73 H         1.121082   5.342847   -0.48639 H        1 UNL1     0.0628
     74 H         1.695028   5.38665   2.535082 H        1 UNL1     0.1022
     75 H         11.281022   1.51957   -2.704845 H        1 UNL1     0.0279
     76 H         11.279953   2.688572   -3.964501 H        1 UNL1     0.0279
     77 H         12.312206   2.872784   -2.489436 H        1 UNL1     0.0279
     78 H         9.663556   4.144978   -4.464154 H        1 UNL1     0.1553
     79 H         8.2761   2.760366   -4.174256 H        1 UNL1     0.1484
     80 H         4.514983   2.380435   -4.560441 H        1 UNL1     0.0317
     81 H         5.371754   3.851103   -4.999762 H        1 UNL1     0.0317
     82 H         7.278065   2.525873   -5.95026 H        1 UNL1     0.0428
     83 H         5.743279   2.130303   -6.69165 H        1 UNL1     0.0428
     84 H         7.161424   -0.547661   -3.704927 H        1 UNL1     0.0428
     85 H         8.181871   0.797149   -4.078153 H        1 UNL1     0.0428
     86 H         6.754513   0.991869   -2.0411 H        1 UNL1     0.0317
     87 H         5.304123   0.838129   -2.921489 H        1 UNL1     0.0317
     88 H         7.789774   0.287101   -6.873523 H        1 UNL1     0.0429
     89 H         7.277077   -1.157019   -5.997227 H        1 UNL1     0.0429
     90 H         4.850415   -0.220274   -6.98546 H        1 UNL1     0.0308
     91 H         6.975049   0.468628   -9.098909 H        1 UNL1     0.0233
     92 H         5.215096   0.418362   -9.37374 H        1 UNL1     0.0233
     93 H         5.908459   1.628035   -8.315184 H        1 UNL1     0.0233
     94 H         5.169303   -1.945197   -8.796127 H        1 UNL1     0.0233
     95 H         6.823329   -2.151477   -8.199491 H        1 UNL1     0.0233
     96 H         5.443883   -2.509065   -7.134949 H        1 UNL1     0.0233
     97 H         4.776836   10.24998   0.015423 H        1 UNL1     0.0280
     98 H         6.432574   10.76649   -0.154682 H        1 UNL1     0.0280
     99 H         5.341626   10.803709   -1.571784 H        1 UNL1     0.0280
     100 H         7.521206   10.234874   -2.726575 H        1 UNL1     0.2922
     101 H         4.570029   0.653705   2.737982 H        1 UNL1     0.0236
     102 H         5.949028   1.812985   2.881139 H        1 UNL1     0.0236
     103 H         6.194054   0.177595   2.351084 H        1 UNL1     0.0236
     104 H         4.192813   -0.790301   1.5803 H        1 UNL1     0.2098
     105 H         0.84788   1.217147   -0.900245 H        1 UNL1     0.0234
     106 H         1.329738   -0.502947   -0.913862 H        1 UNL1     0.0234
     107 H         0.0   -0.0   0.0 H        1 UNL1     0.0234
     108 H         1.27418   3.219399   1.774315 H        1 UNL1     0.2098
     109 H         1.319532   2.959231   -0.825729 H        1 UNL1     0.0234
     110 H         0.095704   2.299936   -1.957267 H        1 UNL1     0.0234
     111 H         0.451239   3.991745   -1.942392 H        1 UNL1     0.0234
     112 H         -3.74403   -1.282634   1.225858 H        1 UNL1     0.0342
     113 H         -3.321753   0.333328   1.895624 H        1 UNL1     0.0342
     114 H         -4.449375   0.193539   0.543997 H        1 UNL1     0.0342
     115 H         -2.745963   2.156192   3.100151 H        1 UNL1     0.0234
     116 H         -1.297703   2.092449   4.109738 H        1 UNL1     0.0234
     117 H         -1.654994   3.459579   3.034124 H        1 UNL1     0.0234
     118 H         1.462226   7.595118   -0.836059 H        1 UNL1     0.0309
     119 H         2.818946   7.593094   -2.005404 H        1 UNL1     0.0309
     120 H         1.942464   6.130619   -1.611574 H        1 UNL1     0.0309
     121 H         -0.152465   6.356018   2.672756 H        1 UNL1     0.0524
     122 H         -1.879721   6.198938   2.328128 H        1 UNL1     0.0524
     123 H         -1.208122   5.477527   3.81213 H        1 UNL1     0.0524
@<TRIPOS>BOND
     1     1     2    1
     2     1    42    1
     3     2     3    2
     4     3     4    1
     5     4     5    2
     6     5     7    1
     7     6    75    1
     8     6    76    1
     9     6    77    1
    10     7     9   am
    11     9    10    1
    12    10    11    2
    13    10    43    1
    14    11    14    1
    15    11    15    1
    16    12    13   ar
    17    12    27   ar
    18    12    43    1
    19    13    14    1
    20    13    30   ar
    21    14    17    2
    22    15    16    1
    23    16    17    1
    24    16    18    1
    25    16    22    1
    26    18    19    1
    27    19    20    1
    28    20    21    1
    29    21    22    1
    30    23    24    1
    31    23    88    1
    32    23    89    1
    33    24    25    1
    34    24    26    1
    35    24    90    1
    36    25    91    1
    37    25    92    1
    38    25    93    1
    39    26    94    1
    40    26    95    1
    41    26    96    1
    42    27    28   ar
    43    28    29   ar
    44    29    30   ar
    45    29    31    1
    46    30    33    1
    47    31    32    1
    48    32    33    1
    49    32    35    1
    50    34    97    1
    51    34    98    1
    52    34    99    1
    53    35    61    1
    54    36    37    1
    55    36    60    1
    56    37    38    1
    57    38    39    1
    58    39    40    1
    59    40    41    1
    60    41    42    1
    61    45   100    1
    62    47   101    1
    63    47   102    1
    64    47   103    1
    65    48   104    1
    66    49   105    1
    67    49   106    1
    68    49   107    1
    69    50   108    1
    70    51    59    1
    71    52   109    1
    72    52   110    1
    73    52   111    1
    74    53    54    1
    75    54    55    2
    76    54    56    1
    77    56   112    1
    78    56   113    1
    79    56   114    1
    80    57   115    1
    81    57   116    1
    82    57   117    1
    83    58   118    1
    84    58   119    1
    85    58   120    1
    86    59   121    1
    87    59   122    1
    88    59   123    1
    89    60    61    2
    90     1    47    1
    91     1    62    1
    92     2    63    1
    93     3    64    1
    94     4    65    1
    95     5     6    1
    96     7     8    2
    97     9    78    1
    98    15    79    1
    99    18    80    1
   100    18    81    1
   101    19    82    1
   102    19    83    1
   103    20    23    1
   104    21    84    1
   105    21    85    1
   106    22    86    1
   107    22    87    1
   108    27    45    1
   109    28    34    1
   110    32    58    1
   111    33    46    2
   112    36    51    1
   113    36    66    1
   114    37    52    1
   115    37    67    1
   116    38    53    1
   117    38    68    1
   118    42    48    1
   119    42    72    1
   120    43    44    2
   121    60    73    1
   122    61    74    1
   123    39    69    1
   124    39    57    1
   125    40    70    1
   126    40    50    1
   127    41    71    1
   128    41    49    1
