@<TRIPOS>MOLECULE
*****
 123 128 0 0 0
SMALL
GASTEIGER

@<TRIPOS>ATOM
     1 C         -5.351193   -1.041652   -0.385734 C.3        1 UNL1     0.0009
     2 C         -7.012861   -0.32288   -0.784812 C.2        1 UNL1     -0.0787
     3 C         -8.305497   0.167266   -0.354817 C.2        1 UNL1     -0.0649
     4 C         -9.50926   0.893705   -1.298003 C.2        1 UNL1     -0.0542
     5 C         -10.663361   1.715086   -1.276506 C.2        1 UNL1     0.0115
     6 C         -11.712345   2.38422   -0.346337 C.3        1 UNL1     -0.0348
     7 C         -11.147484   2.410463   -2.639981 C.2        1 UNL1     0.2441
     8 O         -12.086673   1.992489   -3.303116 O.2        1 UNL1     -0.2702
     9 N         -10.5913   3.678173   -2.884361 N.am        1 UNL1     -0.2772
     10 C         -9.399145   3.557246   -3.560722 C.2        1 UNL1     0.1049
     11 C         -8.333897   3.304634   -2.822037 C.2        1 UNL1     0.0801
     12 C         -8.342726   2.441198   -5.534488 C.ar        1 UNL1     0.0753
     13 C         -7.310412   2.012437   -4.640565 C.ar        1 UNL1     0.0305
     14 C         -7.205512   2.541794   -3.282688 C.2        1 UNL1     0.0924
     15 N         -8.177209   3.350449   -1.487916 N.pl3        1 UNL1     -0.3170
     16 C         -6.780388   3.156163   -1.202613 C.3        1 UNL1     0.1275
     17 N         -6.268578   2.335877   -2.361451 N.2        1 UNL1     -0.2557
     18 C         -6.102115   4.518105   -1.315585 C.3        1 UNL1     0.0016
     19 C         -6.804456   5.490201   -0.381061 C.3        1 UNL1     0.0026
     20 N         -6.721509   4.974714   0.978506 N.3        1 UNL1     -0.3018
     21 C         -7.293318   3.640798   1.173622 C.3        1 UNL1     0.0026
     22 C         -6.570072   2.679706   0.228576 C.3        1 UNL1     0.0016
     23 C         -7.091076   5.957376   1.977725 C.3        1 UNL1     0.0012
     24 C         -8.615299   5.980414   2.172585 C.3        1 UNL1     -0.0339
     25 C         -9.141025   7.417166   2.325598 C.3        1 UNL1     -0.0615
     26 C         -9.297887   5.254508   1.026324 C.3        1 UNL1     -0.0615
     27 C         -8.36555   2.024789   -6.863473 C.ar        1 UNL1     0.1347
     28 C         -7.39206   1.215236   -7.42114 C.ar        1 UNL1     0.0342
     29 C         -6.412663   0.765953   -6.510047 C.ar        1 UNL1     0.1435
     30 C         -6.397348   1.145651   -5.167358 C.ar        1 UNL1     0.0774
     31 O         -5.336818   0.060812   -6.922771 O.3        1 UNL1     -0.4436
     32 C         -4.38091   0.203146   -5.861237 C.3        1 UNL1     0.3143
     33 C         -5.201751   0.530208   -4.630195 C.2        1 UNL1     0.2504
     34 C         -7.212371   0.934335   -8.887055 C.3        1 UNL1     -0.0327
     35 O         -3.793879   -1.085323   -5.641027 O.2        1 UNL1     -0.4528
     36 C         -0.266723   -0.424229   -4.404006 C.3        1 UNL1     0.0854
     37 C         0.210589   0.410847   -3.154069 C.3        1 UNL1     0.0236
     38 C         1.155069   -0.384356   -2.130666 C.3        1 UNL1     0.1131
     39 C         0.707956   -1.801765   -1.589082 C.3        1 UNL1     0.0200
     40 C         -0.866164   -2.0622   -1.102505 C.3        1 UNL1     0.0661
     41 C         -1.752407   -1.082208   -0.038645 C.3        1 UNL1     0.0091
     42 C         -3.54832   -0.712965   0.022647 C.3        1 UNL1     0.0661
     43 C         -9.338353   3.415614   -5.023117 C.2        1 UNL1     0.2131
     44 O         -10.0009   4.141157   -5.742392 O.2        1 UNL1     -0.2851
     45 O         -9.430194   2.451037   -7.654854 O.3        1 UNL1     -0.5056
     46 O         -4.938201   0.31172   -3.468878 O.2        1 UNL1     -0.2836
     47 C         -5.486613   -2.545592   -0.025447 C.3        1 UNL1     -0.0566
     48 O         -3.663716   -0.952469   1.481564 O.3        1 UNL1     -0.3909
     49 C         -1.025443   0.232824   0.133713 C.3        1 UNL1     -0.0577
     50 O         -1.674114   -2.438293   -2.199544 O.3        1 UNL1     -0.3910
     51 O         0.044627   -1.799   -4.381764 O.3        1 UNL1     -0.3753
     52 C         -0.890358   1.408029   -2.66571 C.3        1 UNL1     -0.0564
     53 O         1.871566   0.506638   -1.15851 O.3        1 UNL1     -0.4608
     54 C         1.576348   0.62938   0.174048 C.2        1 UNL1     0.3042
     55 O         1.421253   1.67002   0.811897 O.2        1 UNL1     -0.2512
     56 C         1.377015   -0.68712   0.869612 C.3        1 UNL1     0.0332
     57 C         1.395012   -2.910444   -2.514804 C.3        1 UNL1     -0.0567
     58 C         -3.508749   1.428935   -6.219437 C.3        1 UNL1     0.0210
     59 C         -1.033956   -2.663636   -4.735217 C.3        1 UNL1     0.0372
     60 C         -1.718501   -0.317873   -4.714152 C.2        1 UNL1     -0.0208
     61 C         -2.606196   -1.261517   -5.030819 C.2        1 UNL1     0.0882
     62 H         -5.097129   -0.996853   -1.451641 H        1 UNL1     0.0365
     63 H         -6.97548   -0.317288   -1.87616 H        1 UNL1     0.0576
     64 H         -8.560018   0.258381   0.703495 H        1 UNL1     0.0615
     65 H         -9.201385   0.678134   -2.324757 H        1 UNL1     0.0622
     66 H         0.257572   0.030487   -5.256294 H        1 UNL1     0.0645
     67 H         0.916068   1.147028   -3.577031 H        1 UNL1     0.0362
     68 H         2.014818   -0.581505   -2.789062 H        1 UNL1     0.0741
     69 H         1.272992   -2.026521   -0.694304 H        1 UNL1     0.0359
     70 H         -0.734593   -2.995927   -0.522932 H        1 UNL1     0.0600
     71 H         -1.523994   -1.584009   0.922074 H        1 UNL1     0.0348
     72 H         -3.448076   -1.633592   -0.570406 H        1 UNL1     0.0602
     73 H         -1.987437   0.707121   -4.779793 H        1 UNL1     0.0628
     74 H         -2.428029   -2.333048   -4.934303 H        1 UNL1     0.1022
     75 H         -11.253906   2.644566   0.638086 H        1 UNL1     0.0279
     76 H         -12.115029   3.338969   -0.677046 H        1 UNL1     0.0279
     77 H         -12.509896   1.692492   -0.037914 H        1 UNL1     0.0279
     78 H         -10.395917   4.142267   -1.99976 H        1 UNL1     0.1553
     79 H         -8.794196   3.846561   -0.871366 H        1 UNL1     0.1484
     80 H         -5.041185   4.411532   -1.059 H        1 UNL1     0.0317
     81 H         -6.139782   4.889795   -2.345186 H        1 UNL1     0.0317
     82 H         -7.850367   5.656831   -0.678076 H        1 UNL1     0.0428
     83 H         -6.30615   6.455185   -0.478761 H        1 UNL1     0.0428
     84 H         -7.147141   3.24428   2.183185 H        1 UNL1     0.0428
     85 H         -8.384211   3.640454   1.042209 H        1 UNL1     0.0428
     86 H         -6.918219   1.698111   0.491734 H        1 UNL1     0.0317
     87 H         -5.501866   2.644695   0.475168 H        1 UNL1     0.0317
     88 H         -6.621538   5.671401   2.928013 H        1 UNL1     0.0429
     89 H         -6.710026   6.953326   1.717611 H        1 UNL1     0.0429
     90 H         -8.87021   5.417031   3.078031 H        1 UNL1     0.0308
     91 H         -8.801966   7.866968   3.263586 H        1 UNL1     0.0233
     92 H         -8.812623   8.039715   1.490019 H        1 UNL1     0.0233
     93 H         -10.236809   7.462793   2.328742 H        1 UNL1     0.0233
     94 H         -9.5045   4.215955   1.306601 H        1 UNL1     0.0233
     95 H         -10.251326   5.736916   0.793516 H        1 UNL1     0.0233
     96 H         -8.674614   5.252476   0.127717 H        1 UNL1     0.0233
     97 H         -8.108041   1.160241   -9.457995 H        1 UNL1     0.0280
     98 H         -6.412463   1.54206   -9.329859 H        1 UNL1     0.0280
     99 H         -6.970008   -0.131241   -9.031632 H        1 UNL1     0.0280
     100 H         -9.841237   1.770175   -8.157938 H        1 UNL1     0.2922
     101 H         -6.184455   -3.026415   -0.710634 H        1 UNL1     0.0236
     102 H         -5.755181   -2.71417   1.016875 H        1 UNL1     0.0236
     103 H         -4.538303   -3.09144   -0.163112 H        1 UNL1     0.0236
     104 H         -4.011602   -1.85725   1.605324 H        1 UNL1     0.2098
     105 H         -1.292132   0.992517   -0.596735 H        1 UNL1     0.0234
     106 H         -1.065711   0.64677   1.141162 H        1 UNL1     0.0234
     107 H         0.0   0.0   0.0 H        1 UNL1     0.0234
     108 H         -1.827605   -1.636256   -2.735218 H        1 UNL1     0.2098
     109 H         -0.506657   2.119147   -1.920863 H        1 UNL1     0.0234
     110 H         -1.367625   1.957019   -3.484593 H        1 UNL1     0.0234
     111 H         -1.722141   0.884433   -2.175883 H        1 UNL1     0.0234
     112 H         1.884614   -1.481879   0.314592 H        1 UNL1     0.0342
     113 H         1.712533   -0.658098   1.905193 H        1 UNL1     0.0342
     114 H         0.301863   -0.913373   0.874264 H        1 UNL1     0.0342
     115 H         2.357933   -2.566886   -2.91722 H        1 UNL1     0.0234
     116 H         1.570805   -3.86284   -2.010734 H        1 UNL1     0.0234
     117 H         0.836422   -3.115105   -3.444337 H        1 UNL1     0.0234
     118 H         -4.119561   2.319954   -6.447473 H        1 UNL1     0.0309
     119 H         -2.78286   1.682175   -5.440235 H        1 UNL1     0.0309
     120 H         -2.928962   1.278684   -7.136703 H        1 UNL1     0.0309
     121 H         -1.106363   -2.672936   -5.822428 H        1 UNL1     0.0524
     122 H         -0.863354   -3.701845   -4.404983 H        1 UNL1     0.0524
     123 H         -1.962221   -2.303496   -4.300801 H        1 UNL1     0.0524
@<TRIPOS>BOND
     1     1     2    1
     2     1    42    1
     3     2     3    2
     4     3     4    1
     5     4     5    2
     6     5     7    1
     7     6    75    1
     8     6    76    1
     9     6    77    1
    10     7     9   am
    11     9    10    1
    12    10    11    2
    13    10    43    1
    14    11    14    1
    15    11    15    1
    16    12    13   ar
    17    12    27   ar
    18    12    43    1
    19    13    14    1
    20    13    30   ar
    21    14    17    2
    22    15    16    1
    23    16    17    1
    24    16    18    1
    25    16    22    1
    26    18    19    1
    27    19    20    1
    28    20    21    1
    29    21    22    1
    30    23    24    1
    31    23    88    1
    32    23    89    1
    33    24    25    1
    34    24    26    1
    35    24    90    1
    36    25    91    1
    37    25    92    1
    38    25    93    1
    39    26    94    1
    40    26    95    1
    41    26    96    1
    42    27    28   ar
    43    28    29   ar
    44    29    30   ar
    45    29    31    1
    46    30    33    1
    47    31    32    1
    48    32    33    1
    49    32    35    1
    50    34    97    1
    51    34    98    1
    52    34    99    1
    53    35    61    1
    54    36    37    1
    55    36    60    1
    56    37    38    1
    57    38    39    1
    58    39    40    1
    59    40    41    1
    60    41    42    1
    61    45   100    1
    62    47   101    1
    63    47   102    1
    64    47   103    1
    65    48   104    1
    66    49   105    1
    67    49   106    1
    68    49   107    1
    69    50   108    1
    70    51    59    1
    71    52   109    1
    72    52   110    1
    73    52   111    1
    74    53    54    1
    75    54    55    2
    76    54    56    1
    77    56   112    1
    78    56   113    1
    79    56   114    1
    80    57   115    1
    81    57   116    1
    82    57   117    1
    83    58   118    1
    84    58   119    1
    85    58   120    1
    86    59   121    1
    87    59   122    1
    88    59   123    1
    89    60    61    2
    90     1    47    1
    91     1    62    1
    92     2    63    1
    93     3    64    1
    94     4    65    1
    95     5     6    1
    96     7     8    2
    97     9    78    1
    98    15    79    1
    99    18    80    1
   100    18    81    1
   101    19    82    1
   102    19    83    1
   103    20    23    1
   104    21    84    1
   105    21    85    1
   106    22    86    1
   107    22    87    1
   108    27    45    1
   109    28    34    1
   110    32    58    1
   111    33    46    2
   112    36    51    1
   113    36    66    1
   114    37    52    1
   115    37    67    1
   116    38    53    1
   117    38    68    1
   118    42    48    1
   119    42    72    1
   120    43    44    2
   121    60    73    1
   122    61    74    1
   123    39    69    1
   124    39    57    1
   125    40    70    1
   126    40    50    1
   127    41    71    1
   128    41    49    1
