@<TRIPOS>MOLECULE
*****
 123 128 0 0 0
SMALL
GASTEIGER

@<TRIPOS>ATOM
     1 C         4.972915   2.23668   0.528253 C.3        1 UNL1     0.0009
     2 C         6.360876   3.11218   -0.334359 C.2        1 UNL1     -0.0787
     3 C         7.673254   3.089492   -0.945257 C.2        1 UNL1     -0.0649
     4 C         8.460131   4.342952   -1.76746 C.2        1 UNL1     -0.0542
     5 C         9.486364   4.661231   -2.690836 C.2        1 UNL1     0.0115
     6 C         10.704593   4.084887   -3.463538 C.3        1 UNL1     -0.0348
     7 C         9.465447   6.095456   -3.411636 C.2        1 UNL1     0.2441
     8 O         10.19058   7.020818   -3.073386 O.2        1 UNL1     -0.2702
     9 N         8.749047   6.136724   -4.620445 N.am        1 UNL1     -0.2772
     10 C         7.423214   6.418416   -4.383512 C.2        1 UNL1     0.1049
     11 C         6.662282   5.393953   -4.043394 C.2        1 UNL1     0.0801
     12 C         5.919176   7.993578   -3.153037 C.ar        1 UNL1     0.0753
     13 C         5.252842   6.834367   -2.642314 C.ar        1 UNL1     0.0305
     14 C         5.520841   5.500628   -3.175576 C.2        1 UNL1     0.0924
     15 N         6.917611   4.075186   -4.090164 N.pl3        1 UNL1     -0.3170
     16 C         5.6985   3.380055   -3.77265 C.3        1 UNL1     0.1275
     17 N         4.933131   4.340788   -2.895765 N.2        1 UNL1     -0.2557
     18 C         4.898057   3.257321   -5.065681 C.3        1 UNL1     0.0016
     19 C         5.761703   2.565789   -6.108508 C.3        1 UNL1     0.0026
     20 N         6.145409   1.254822   -5.603369 N.3        1 UNL1     -0.3018
     21 C         6.867533   1.266348   -4.329489 C.3        1 UNL1     0.0026
     22 C         5.979862   1.961324   -3.295591 C.3        1 UNL1     0.0016
     23 C         6.71248   0.39984   -6.627127 C.3        1 UNL1     0.0012
     24 C         5.628597   -0.037063   -7.62516 C.3        1 UNL1     -0.0339
     25 C         5.886059   -1.459944   -8.147825 C.3        1 UNL1     -0.0615
     26 C         4.255006   0.08461   -6.988588 C.3        1 UNL1     -0.0615
     27 C         5.572018   9.272823   -2.725096 C.ar        1 UNL1     0.1347
     28 C         4.551939   9.519977   -1.823762 C.ar        1 UNL1     0.0342
     29 C         3.942864   8.360937   -1.297627 C.ar        1 UNL1     0.1435
     30 C         4.304646   7.071561   -1.689855 C.ar        1 UNL1     0.0774
     31 O         2.860665   8.437061   -0.492608 O.3        1 UNL1     -0.4436
     32 C         2.266416   7.131967   -0.559469 C.3        1 UNL1     0.3143
     33 C         3.391319   6.205262   -0.974226 C.2        1 UNL1     0.2504
     34 C         3.958724   10.865412   -1.510709 C.3        1 UNL1     -0.0327
     35 O         1.89376   6.764748   0.774521 O.2        1 UNL1     -0.4528
     36 C         -1.130715   4.498159   0.423494 C.3        1 UNL1     0.0854
     37 C         -1.276314   3.148218   -0.37899 C.3        1 UNL1     0.0236
     38 C         -1.7867   1.898776   0.487118 C.3        1 UNL1     0.1131
     39 C         -1.06927   1.543767   1.851498 C.3        1 UNL1     0.0200
     40 C         0.595003   1.565916   1.961686 C.3        1 UNL1     0.0661
     41 C         1.671788   0.807311   0.892733 C.3        1 UNL1     0.0091
     42 C         3.359344   1.291459   0.360605 C.3        1 UNL1     0.0661
     43 C         6.931186   7.794474   -4.220019 C.2        1 UNL1     0.2131
     44 O         7.273653   8.669411   -4.994576 O.2        1 UNL1     -0.2851
     45 O         6.300578   10.344331   -3.237451 O.3        1 UNL1     -0.5056
     46 O         3.516396   5.022826   -0.746069 O.2        1 UNL1     -0.2836
     47 C         5.347298   1.960496   2.009314 C.3        1 UNL1     -0.0566
     48 O         3.93649   -0.058156   0.571696 O.3        1 UNL1     -0.3909
     49 C         0.916688   0.398851   -0.352449 C.3        1 UNL1     -0.0577
     50 O         1.059276   2.863557   2.275215 O.3        1 UNL1     -0.3910
     51 O         -1.294823   4.405105   1.820576 O.3        1 UNL1     -0.3753
     52 C         -0.173574   3.002817   -1.477978 C.3        1 UNL1     -0.0564
     53 O         -2.248996   0.73926   -0.346027 O.3        1 UNL1     -0.4608
     54 C         -2.0564   -0.58352   -0.044215 C.2        1 UNL1     0.3042
     55 O         -1.226979   -1.348455   -0.534903 O.2        1 UNL1     -0.2512
     56 C         -2.949331   -1.085892   1.054425 C.3        1 UNL1     0.0332
     57 C         -1.903398   2.2339   3.028835 C.3        1 UNL1     -0.0567
     58 C         1.219514   7.185756   -1.696408 C.3        1 UNL1     0.0210
     59 C         -2.509666   4.962565   2.319835 C.3        1 UNL1     0.0372
     60 C         0.14083   5.235221   0.188814 C.2        1 UNL1     -0.0208
     61 C         0.970593   5.823896   1.051195 C.2        1 UNL1     0.0882
     62 H         4.40211   3.173062   0.519139 H        1 UNL1     0.0365
     63 H         5.991206   4.139655   -0.323893 H        1 UNL1     0.0576
     64 H         8.229891   2.15818   -1.071436 H        1 UNL1     0.0615
     65 H         7.873817   5.230023   -1.512853 H        1 UNL1     0.0622
     66 H         -1.929349   5.141667   0.028364 H        1 UNL1     0.0645
     67 H         -2.140811   3.322874   -1.042843 H        1 UNL1     0.0362
     68 H         -2.7851   2.266221   0.769435 H        1 UNL1     0.0741
     69 H         -1.310884   0.52307   2.116468 H        1 UNL1     0.0359
     70 H         0.731881   0.989741   2.896751 H        1 UNL1     0.0600
     71 H         1.794418   -0.168622   1.40212 H        1 UNL1     0.0348
     72 H         3.166139   1.841003   1.293336 H        1 UNL1     0.0602
     73 H         0.283063   5.362548   -0.855603 H        1 UNL1     0.0628
     74 H         0.928036   5.695696   2.133318 H        1 UNL1     0.1022
     75 H         11.365012   3.502912   -2.776381 H        1 UNL1     0.0279
     76 H         10.484967   3.361649   -4.245689 H        1 UNL1     0.0279
     77 H         11.393391   4.866701   -3.81571 H        1 UNL1     0.0279
     78 H         8.792452   5.227012   -5.074995 H        1 UNL1     0.1553
     79 H         7.646118   3.668345   -4.647561 H        1 UNL1     0.1484
     80 H         3.980598   2.690678   -4.8658 H        1 UNL1     0.0317
     81 H         4.585328   4.242749   -5.42732 H        1 UNL1     0.0317
     82 H         6.647137   3.165316   -6.366355 H        1 UNL1     0.0428
     83 H         5.17236   2.49022   -7.022847 H        1 UNL1     0.0428
     84 H         7.073532   0.267262   -3.933001 H        1 UNL1     0.0428
     85 H         7.861326   1.724788   -4.427086 H        1 UNL1     0.0428
     86 H         6.478982   1.833772   -2.352936 H        1 UNL1     0.0317
     87 H         5.045988   1.400762   -3.16619 H        1 UNL1     0.0317
     88 H         7.474843   0.974993   -7.168695 H        1 UNL1     0.0429
     89 H         7.218028   -0.468896   -6.186115 H        1 UNL1     0.0429
     90 H         5.625947   0.652821   -8.477372 H        1 UNL1     0.0308
     91 H         6.136744   -2.144161   -7.331671 H        1 UNL1     0.0233
     92 H         5.010511   -1.840716   -8.678896 H        1 UNL1     0.0233
     93 H         6.717538   -1.498449   -8.861964 H        1 UNL1     0.0233
     94 H         3.519315   -0.485771   -7.565876 H        1 UNL1     0.0233
     95 H         4.276131   -0.322361   -5.973753 H        1 UNL1     0.0233
     96 H         3.926666   1.126814   -6.944194 H        1 UNL1     0.0233
     97 H         2.892569   10.898004   -1.714378 H        1 UNL1     0.0280
     98 H         4.070545   11.130613   -0.451265 H        1 UNL1     0.0280
     99 H         4.451429   11.637678   -2.123851 H        1 UNL1     0.0280
     100 H         5.966887   10.694307   -4.044786 H        1 UNL1     0.2922
     101 H         4.818774   2.658333   2.658422 H        1 UNL1     0.0236
     102 H         6.421908   1.968956   2.188548 H        1 UNL1     0.0236
     103 H         5.014864   0.962792   2.34138 H        1 UNL1     0.0236
     104 H         3.194365   -0.69215   0.619378 H        1 UNL1     0.2098
     105 H         0.685092   1.219542   -1.02672 H        1 UNL1     0.0234
     106 H         1.361977   -0.429052   -0.90401 H        1 UNL1     0.0234
     107 H         0.0   -0.0   0.0 H        1 UNL1     0.0234
     108 H         2.006136   2.897963   2.038489 H        1 UNL1     0.2098
     109 H         -0.220519   3.8088   -2.223565 H        1 UNL1     0.0234
     110 H         0.839545   2.943415   -1.065905 H        1 UNL1     0.0234
     111 H         -0.286273   2.068079   -2.04323 H        1 UNL1     0.0234
     112 H         -2.73094   -2.138303   1.259564 H        1 UNL1     0.0342
     113 H         -2.863317   -0.485516   1.958855 H        1 UNL1     0.0342
     114 H         -3.989959   -1.019146   0.708301 H        1 UNL1     0.0342
     115 H         -2.976164   2.007914   2.956084 H        1 UNL1     0.0234
     116 H         -1.575263   1.950127   4.030758 H        1 UNL1     0.0234
     117 H         -1.913553   3.336054   2.973208 H        1 UNL1     0.0234
     118 H         0.18615   7.131853   -1.311362 H        1 UNL1     0.0309
     119 H         1.319508   8.072092   -2.330927 H        1 UNL1     0.0309
     120 H         1.283989   6.322951   -2.368357 H        1 UNL1     0.0309
     121 H         -2.337566   5.253795   3.355656 H        1 UNL1     0.0524
     122 H         -2.813314   5.86698   1.766781 H        1 UNL1     0.0524
     123 H         -3.309983   4.230092   2.264434 H        1 UNL1     0.0524
@<TRIPOS>BOND
     1     1     2    1
     2     1    42    1
     3     2     3    2
     4     3     4    1
     5     4     5    2
     6     5     7    1
     7     6    75    1
     8     6    76    1
     9     6    77    1
    10     7     9   am
    11     9    10    1
    12    10    11    2
    13    10    43    1
    14    11    14    1
    15    11    15    1
    16    12    13   ar
    17    12    27   ar
    18    12    43    1
    19    13    14    1
    20    13    30   ar
    21    14    17    2
    22    15    16    1
    23    16    17    1
    24    16    18    1
    25    16    22    1
    26    18    19    1
    27    19    20    1
    28    20    21    1
    29    21    22    1
    30    23    24    1
    31    23    88    1
    32    23    89    1
    33    24    25    1
    34    24    26    1
    35    24    90    1
    36    25    91    1
    37    25    92    1
    38    25    93    1
    39    26    94    1
    40    26    95    1
    41    26    96    1
    42    27    28   ar
    43    28    29   ar
    44    29    30   ar
    45    29    31    1
    46    30    33    1
    47    31    32    1
    48    32    33    1
    49    32    35    1
    50    34    97    1
    51    34    98    1
    52    34    99    1
    53    35    61    1
    54    36    37    1
    55    36    60    1
    56    37    38    1
    57    38    39    1
    58    39    40    1
    59    40    41    1
    60    41    42    1
    61    45   100    1
    62    47   101    1
    63    47   102    1
    64    47   103    1
    65    48   104    1
    66    49   105    1
    67    49   106    1
    68    49   107    1
    69    50   108    1
    70    51    59    1
    71    52   109    1
    72    52   110    1
    73    52   111    1
    74    53    54    1
    75    54    55    2
    76    54    56    1
    77    56   112    1
    78    56   113    1
    79    56   114    1
    80    57   115    1
    81    57   116    1
    82    57   117    1
    83    58   118    1
    84    58   119    1
    85    58   120    1
    86    59   121    1
    87    59   122    1
    88    59   123    1
    89    60    61    2
    90     1    47    1
    91     1    62    1
    92     2    63    1
    93     3    64    1
    94     4    65    1
    95     5     6    1
    96     7     8    2
    97     9    78    1
    98    15    79    1
    99    18    80    1
   100    18    81    1
   101    19    82    1
   102    19    83    1
   103    20    23    1
   104    21    84    1
   105    21    85    1
   106    22    86    1
   107    22    87    1
   108    27    45    1
   109    28    34    1
   110    32    58    1
   111    33    46    2
   112    36    51    1
   113    36    66    1
   114    37    52    1
   115    37    67    1
   116    38    53    1
   117    38    68    1
   118    42    48    1
   119    42    72    1
   120    43    44    2
   121    60    73    1
   122    61    74    1
   123    39    69    1
   124    39    57    1
   125    40    70    1
   126    40    50    1
   127    41    71    1
   128    41    49    1
