@<TRIPOS>MOLECULE
*****
 123 128 0 0 0
SMALL
GASTEIGER

@<TRIPOS>ATOM
     1 C         -3.965764   -0.648342   -2.705002 C.3        1 UNL1     0.0009
     2 C         -5.475741   -1.711034   -2.538592 C.2        1 UNL1     -0.0787
     3 C         -6.308171   -2.794475   -3.017406 C.2        1 UNL1     -0.0649
     4 C         -7.680982   -3.456152   -2.279889 C.2        1 UNL1     -0.0542
     5 C         -8.535243   -4.584594   -2.217151 C.2        1 UNL1     0.0115
     6 C         -8.889641   -5.932109   -2.904121 C.3        1 UNL1     -0.0348
     7 C         -9.491944   -4.764696   -0.940721 C.2        1 UNL1     0.2441
     8 O         -10.687139   -4.504813   -0.963001 O.2        1 UNL1     -0.2702
     9 N         -8.923622   -5.484984   0.124336 N.am        1 UNL1     -0.2772
     10 C         -8.236008   -4.638698   0.963567 C.2        1 UNL1     0.1049
     11 C         -7.004019   -4.332317   0.599486 C.2        1 UNL1     0.0801
     12 C         -8.445261   -2.48054   2.210925 C.ar        1 UNL1     0.0753
     13 C         -7.196055   -2.10824   1.619752 C.ar        1 UNL1     0.0305
     14 C         -6.372092   -3.075974   0.898901 C.2        1 UNL1     0.0924
     15 N         -6.224643   -4.873755   -0.352326 N.pl3        1 UNL1     -0.3170
     16 C         -4.913159   -4.295109   -0.228093 C.3        1 UNL1     0.1275
     17 N         -5.156307   -2.934715   0.37848 N.2        1 UNL1     -0.2557
     18 C         -4.161462   -5.101   0.826987 C.3        1 UNL1     0.0016
     19 C         -4.165464   -6.564557   0.415194 C.3        1 UNL1     0.0026
     20 N         -3.528178   -6.685343   -0.888764 N.3        1 UNL1     -0.3018
     21 C         -4.144185   -5.896003   -1.957336 C.3        1 UNL1     0.0026
     22 C         -4.12537   -4.428927   -1.524638 C.3        1 UNL1     0.0016
     23 C         -3.21213   -8.056245   -1.237166 C.3        1 UNL1     0.0012
     24 C         -2.577532   -8.124094   -2.635179 C.3        1 UNL1     -0.0339
     25 C         -2.210981   -9.56769   -3.016922 C.3        1 UNL1     -0.0615
     26 C         -3.505017   -7.493404   -3.659279 C.3        1 UNL1     -0.0615
     27 C         -9.166317   -1.585841   2.998142 C.ar        1 UNL1     0.1347
     28 C         -8.72203   -0.310072   3.296591 C.ar        1 UNL1     0.0342
     29 C         -7.513654   0.051316   2.663826 C.ar        1 UNL1     0.1435
     30 C         -6.798466   -0.822004   1.843437 C.ar        1 UNL1     0.0774
     31 O         -6.894939   1.219783   2.941105 O.3        1 UNL1     -0.4436
     32 C         -5.539646   1.023657   2.510304 C.3        1 UNL1     0.3143
     33 C         -5.608557   -0.082641   1.477071 C.2        1 UNL1     0.2504
     34 C         -9.311626   0.609841   4.329178 C.3        1 UNL1     -0.0327
     35 O         -5.135257   2.213274   1.821439 O.2        1 UNL1     -0.4528
     36 C         -1.391324   2.512145   2.370737 C.3        1 UNL1     0.0854
     37 C         -0.247842   1.483589   2.021388 C.3        1 UNL1     0.0236
     38 C         0.928169   2.067403   1.100573 C.3        1 UNL1     0.1131
     39 C         0.571749   2.826782   -0.240538 C.3        1 UNL1     0.0200
     40 C         -0.597906   2.22558   -1.266647 C.3        1 UNL1     0.0661
     41 C         -0.697784   0.629712   -1.833074 C.3        1 UNL1     0.0091
     42 C         -2.160423   -0.393278   -2.256845 C.3        1 UNL1     0.0661
     43 C         -8.904174   -3.880371   2.031672 C.2        1 UNL1     0.2131
     44 O         -9.702741   -4.426761   2.770919 O.2        1 UNL1     -0.2851
     45 O         -10.394925   -2.011972   3.498515 O.3        1 UNL1     -0.5056
     46 O         -4.861954   -0.293066   0.54747 O.2        1 UNL1     -0.2836
     47 C         -4.153391   0.379185   -3.853464 C.3        1 UNL1     -0.0566
     48 O         -1.602559   -0.858944   -3.54954 O.3        1 UNL1     -0.3909
     49 C         0.224566   -0.23964   -1.007851 C.3        1 UNL1     -0.0577
     50 O         -1.880027   2.685487   -0.889321 O.3        1 UNL1     -0.3910
     51 O         -1.333476   3.749634   1.697902 O.3        1 UNL1     -0.3753
     52 C         -0.805048   0.034112   1.838389 C.3        1 UNL1     -0.0564
     53 O         2.154741   1.203055   1.073142 O.3        1 UNL1     -0.4608
     54 C         2.600094   0.421659   2.107072 C.2        1 UNL1     0.3042
     55 O         2.317455   -0.754988   2.32946 O.2        1 UNL1     -0.2512
     56 C         3.583525   1.116229   3.005486 C.3        1 UNL1     0.0332
     57 C         0.544717   4.392621   0.084414 C.3        1 UNL1     -0.0567
     58 C         -4.759435   0.50807   3.741957 C.3        1 UNL1     0.0210
     59 C         -1.589023   3.682055   0.295763 C.3        1 UNL1     0.0372
     60 C         -2.77632   1.99481   2.199534 C.2        1 UNL1     -0.0208
     61 C         -3.846484   2.558746   1.637867 C.2        1 UNL1     0.0882
     62 H         -4.247699   -0.135799   -1.777358 H        1 UNL1     0.0365
     63 H         -5.963327   -1.239393   -1.682856 H        1 UNL1     0.0576
     64 H         -6.008333   -3.415351   -3.864588 H        1 UNL1     0.0615
     65 H         -7.939743   -2.726016   -1.50825 H        1 UNL1     0.0622
     66 H         -1.271762   2.702915   3.446543 H        1 UNL1     0.0645
     67 H         0.278505   1.332134   2.979814 H        1 UNL1     0.0362
     68 H         1.324907   2.839999   1.776751 H        1 UNL1     0.0741
     69 H         1.450597   2.850857   -0.870979 H        1 UNL1     0.0359
     70 H         -0.358278   2.796334   -2.184186 H        1 UNL1     0.0600
     71 H         -0.122953   0.722723   -2.775345 H        1 UNL1     0.0348
     72 H         -2.505309   0.650787   -2.274092 H        1 UNL1     0.0602
     73 H         -2.874651   1.078696   2.72709 H        1 UNL1     0.0628
     74 H         -3.819338   3.464827   1.031635 H        1 UNL1     0.1022
     75 H         -9.955612   -6.20255   -2.710211 H        1 UNL1     0.0279
     76 H         -8.83691   -5.951497   -3.990359 H        1 UNL1     0.0279
     77 H         -8.363925   -6.788544   -2.457083 H        1 UNL1     0.0279
     78 H         -8.257861   -6.164   -0.238675 H        1 UNL1     0.1553
     79 H         -6.383413   -5.779739   -0.753471 H        1 UNL1     0.1484
     80 H         -3.139703   -4.711968   0.913172 H        1 UNL1     0.0317
     81 H         -4.625368   -4.984489   1.812313 H        1 UNL1     0.0317
     82 H         -5.183855   -6.979885   0.398033 H        1 UNL1     0.0428
     83 H         -3.625973   -7.121234   1.182077 H        1 UNL1     0.0428
     84 H         -3.600107   -5.941729   -2.905861 H        1 UNL1     0.0428
     85 H         -5.149343   -6.261976   -2.208412 H        1 UNL1     0.0428
     86 H         -4.458868   -3.870579   -2.379632 H        1 UNL1     0.0317
     87 H         -3.090552   -4.091491   -1.389046 H        1 UNL1     0.0317
     88 H         -2.487163   -8.436146   -0.50546 H        1 UNL1     0.0429
     89 H         -4.099874   -8.698625   -1.173669 H        1 UNL1     0.0429
     90 H         -1.664073   -7.5177   -2.644806 H        1 UNL1     0.0308
     91 H         -1.457998   -9.590283   -3.8104 H        1 UNL1     0.0233
     92 H         -1.833496   -10.112878   -2.148657 H        1 UNL1     0.0233
     93 H         -3.075324   -10.135334   -3.382335 H        1 UNL1     0.0233
     94 H         -2.928501   -7.12511   -4.514747 H        1 UNL1     0.0233
     95 H         -4.216439   -8.237854   -4.027567 H        1 UNL1     0.0233
     96 H         -4.061443   -6.65506   -3.230866 H        1 UNL1     0.0233
     97 H         -9.161712   0.2387   5.338639 H        1 UNL1     0.0280
     98 H         -8.853629   1.607283   4.304592 H        1 UNL1     0.0280
     99 H         -10.395421   0.712535   4.156153 H        1 UNL1     0.0280
     100 H         -10.336521   -2.61365   4.21976 H        1 UNL1     0.2922
     101 H         -5.115153   0.880118   -3.745138 H        1 UNL1     0.0236
     102 H         -4.028917   -0.057425   -4.843849 H        1 UNL1     0.0236
     103 H         -3.408366   1.191047   -3.808604 H        1 UNL1     0.0236
     104 H         -2.299427   -1.371641   -4.003948 H        1 UNL1     0.2098
     105 H         0.070644   -1.307891   -1.138077 H        1 UNL1     0.0234
     106 H         1.283   0.003538   -1.100091 H        1 UNL1     0.0234
     107 H         0.0   0.0   0.0 H        1 UNL1     0.0234
     108 H         -2.170806   2.14383   -0.130491 H        1 UNL1     0.2098
     109 H         -0.174993   -0.572861   1.173313 H        1 UNL1     0.0234
     110 H         -0.951348   -0.493697   2.786945 H        1 UNL1     0.0234
     111 H         -1.802861   0.038987   1.379814 H        1 UNL1     0.0234
     112 H         4.562312   1.164927   2.51871 H        1 UNL1     0.0342
     113 H         3.242232   2.108457   3.296769 H        1 UNL1     0.0342
     114 H         3.692292   0.519403   3.921527 H        1 UNL1     0.0342
     115 H         -0.4507   4.725101   0.409669 H        1 UNL1     0.0234
     116 H         1.259877   4.699514   0.850189 H        1 UNL1     0.0234
     117 H         0.702371   5.028935   -0.803387 H        1 UNL1     0.0234
     118 H         -5.410789   -0.038224   4.446448 H        1 UNL1     0.0309
     119 H         -3.907702   -0.126133   3.476364 H        1 UNL1     0.0309
     120 H         -4.352944   1.321555   4.352787 H        1 UNL1     0.0309
     121 H         -2.010733   2.699777   0.084465 H        1 UNL1     0.0524
     122 H         -2.323526   4.436253   -0.032457 H        1 UNL1     0.0524
     123 H         -0.66706   3.821915   -0.261479 H        1 UNL1     0.0524
@<TRIPOS>BOND
     1     1     2    1
     2     1    42    1
     3     2     3    2
     4     3     4    1
     5     4     5    2
     6     5     7    1
     7     6    75    1
     8     6    76    1
     9     6    77    1
    10     7     9   am
    11     9    10    1
    12    10    11    2
    13    10    43    1
    14    11    14    1
    15    11    15    1
    16    12    13   ar
    17    12    27   ar
    18    12    43    1
    19    13    14    1
    20    13    30   ar
    21    14    17    2
    22    15    16    1
    23    16    17    1
    24    16    18    1
    25    16    22    1
    26    18    19    1
    27    19    20    1
    28    20    21    1
    29    21    22    1
    30    23    24    1
    31    23    88    1
    32    23    89    1
    33    24    25    1
    34    24    26    1
    35    24    90    1
    36    25    91    1
    37    25    92    1
    38    25    93    1
    39    26    94    1
    40    26    95    1
    41    26    96    1
    42    27    28   ar
    43    28    29   ar
    44    29    30   ar
    45    29    31    1
    46    30    33    1
    47    31    32    1
    48    32    33    1
    49    32    35    1
    50    34    97    1
    51    34    98    1
    52    34    99    1
    53    35    61    1
    54    36    37    1
    55    36    60    1
    56    37    38    1
    57    38    39    1
    58    39    40    1
    59    40    41    1
    60    41    42    1
    61    45   100    1
    62    47   101    1
    63    47   102    1
    64    47   103    1
    65    48   104    1
    66    49   105    1
    67    49   106    1
    68    49   107    1
    69    50   108    1
    70    51    59    1
    71    52   109    1
    72    52   110    1
    73    52   111    1
    74    53    54    1
    75    54    55    2
    76    54    56    1
    77    56   112    1
    78    56   113    1
    79    56   114    1
    80    57   115    1
    81    57   116    1
    82    57   117    1
    83    58   118    1
    84    58   119    1
    85    58   120    1
    86    59   121    1
    87    59   122    1
    88    59   123    1
    89    60    61    2
    90     1    47    1
    91     1    62    1
    92     2    63    1
    93     3    64    1
    94     4    65    1
    95     5     6    1
    96     7     8    2
    97     9    78    1
    98    15    79    1
    99    18    80    1
   100    18    81    1
   101    19    82    1
   102    19    83    1
   103    20    23    1
   104    21    84    1
   105    21    85    1
   106    22    86    1
   107    22    87    1
   108    27    45    1
   109    28    34    1
   110    32    58    1
   111    33    46    2
   112    36    51    1
   113    36    66    1
   114    37    52    1
   115    37    67    1
   116    38    53    1
   117    38    68    1
   118    42    48    1
   119    42    72    1
   120    43    44    2
   121    60    73    1
   122    61    74    1
   123    39    69    1
   124    39    57    1
   125    40    70    1
   126    40    50    1
   127    41    71    1
   128    41    49    1
