@<TRIPOS>MOLECULE
*****
 123 128 0 0 0
SMALL
GASTEIGER

@<TRIPOS>ATOM
     1 C         -0.771772   0.297834   4.087942 C.3        1 UNL1     0.0009
     2 C         -0.180393   1.615791   5.249965 C.2        1 UNL1     -0.0787
     3 C         0.728277   2.062573   6.284736 C.2        1 UNL1     -0.0649
     4 C         0.863194   3.612249   6.953059 C.2        1 UNL1     -0.0542
     5 C         1.70341   4.497101   7.672888 C.2        1 UNL1     0.0115
     6 C         3.024111   4.594221   8.485069 C.3        1 UNL1     -0.0348
     7 C         1.382573   6.069732   7.643179 C.2        1 UNL1     0.2441
     8 O         0.837506   6.65526   8.568697 O.2        1 UNL1     -0.2702
     9 N         2.001585   6.777487   6.598162 N.am        1 UNL1     -0.2772
     10 C         1.210622   6.760791   5.472364 C.2        1 UNL1     0.1049
     11 C         1.303821   5.685361   4.711453 C.2        1 UNL1     0.0801
     12 C         -1.13033   7.160926   4.686762 C.ar        1 UNL1     0.0753
     13 C         -1.050955   5.882637   4.04779 C.ar        1 UNL1     0.0305
     14 C         0.21544   5.163272   3.930283 C.2        1 UNL1     0.0924
     15 N         2.200028   4.684022   4.737162 N.pl3        1 UNL1     -0.3170
     16 C         1.960258   3.850154   3.589369 C.3        1 UNL1     0.1275
     17 N         0.491446   4.029335   3.29237 N.2        1 UNL1     -0.2557
     18 C         2.708835   4.472037   2.414381 C.3        1 UNL1     0.0016
     19 C         4.174731   4.614044   2.791971 C.3        1 UNL1     0.0026
     20 N         4.704984   3.296062   3.11257 N.3        1 UNL1     -0.3018
     21 C         4.009138   2.591518   4.191358 C.3        1 UNL1     0.0026
     22 C         2.539591   2.45585   3.788963 C.3        1 UNL1     0.0016
     23 C         6.151925   3.274737   3.193513 C.3        1 UNL1     0.0012
     24 C         6.731198   4.655244   2.846527 C.3        1 UNL1     -0.0339
     25 C         6.684237   5.604719   4.054976 C.3        1 UNL1     -0.0615
     26 C         8.143074   4.506872   2.306736 C.3        1 UNL1     -0.0615
     27 C         -2.314358   7.89454   4.688765 C.ar        1 UNL1     0.1347
     28 C         -3.468555   7.472913   4.053068 C.ar        1 UNL1     0.0342
     29 C         -3.381093   6.18971   3.472633 C.ar        1 UNL1     0.1435
     30 C         -2.212343   5.427618   3.494029 C.ar        1 UNL1     0.0774
     31 O         -4.385253   5.685526   2.722654 O.3        1 UNL1     -0.4436
     32 C         -3.771671   4.644382   1.947794 C.3        1 UNL1     0.3143
     33 C         -2.539601   4.240548   2.7321 C.2        1 UNL1     0.2504
     34 C         -4.690951   8.310144   3.798331 C.3        1 UNL1     -0.0327
     35 O         -4.661926   3.521666   1.962184 O.2        1 UNL1     -0.4528
     36 C         -4.102437   1.707721   -1.324861 C.3        1 UNL1     0.0854
     37 C         -2.769774   1.107027   -1.917059 C.3        1 UNL1     0.0236
     38 C         -2.845115   -0.445464   -2.311825 C.3        1 UNL1     0.1131
     39 C         -3.393605   -1.496229   -1.264294 C.3        1 UNL1     0.0200
     40 C         -2.920701   -1.422003   0.333608 C.3        1 UNL1     0.0661
     41 C         -1.323629   -1.301837   0.892651 C.3        1 UNL1     0.0091
     42 C         -0.642825   -0.471852   2.380278 C.3        1 UNL1     0.0661
     43 C         0.114467   7.7199   5.270105 C.2        1 UNL1     0.2131
     44 O         0.285487   8.90714   5.479749 O.2        1 UNL1     -0.2851
     45 O         -2.319808   9.10869   5.372321 O.3        1 UNL1     -0.5056
     46 O         -1.969655   3.172418   2.742656 O.2        1 UNL1     -0.2836
     47 C         -1.569051   -0.785875   4.862476 C.3        1 UNL1     -0.0566
     48 O         0.191843   -1.629205   2.783985 O.3        1 UNL1     -0.3909
     49 C         -0.426835   -0.932555   -0.267903 C.3        1 UNL1     -0.0577
     50 O         -3.755219   -0.544917   1.063007 O.3        1 UNL1     -0.3910
     51 O         -5.129079   0.780373   -1.053821 O.3        1 UNL1     -0.3753
     52 C         -1.502143   1.734669   -1.250629 C.3        1 UNL1     -0.0564
     53 O         -1.709699   -0.899714   -3.181776 O.3        1 UNL1     -0.4608
     54 C         -1.764964   -1.923532   -4.09099 C.2        1 UNL1     0.3042
     55 O         -0.824583   -2.436203   -4.696542 O.2        1 UNL1     -0.2512
     56 C         -3.146908   -2.478417   -4.288592 C.3        1 UNL1     0.0332
     57 C         -4.947353   -1.718161   -1.572171 C.3        1 UNL1     -0.0567
     58 C         -3.325325   5.294394   0.61746 C.3        1 UNL1     0.0210
     59 C         -4.700866   -0.577451   -0.95995 C.3        1 UNL1     0.0372
     60 C         -3.930248   2.528917   -0.095573 C.2        1 UNL1     -0.0208
     61 C         -4.626542   2.538919   1.041888 C.2        1 UNL1     0.0882
     62 H         -1.509707   1.005533   3.691299 H        1 UNL1     0.0365
     63 H         -0.917728   2.398976   5.061738 H        1 UNL1     0.0576
     64 H         1.557711   1.439324   6.626362 H        1 UNL1     0.0615
     65 H         -0.044613   4.120803   6.61729 H        1 UNL1     0.0622
     66 H         -4.462539   2.398201   -2.100497 H        1 UNL1     0.0645
     67 H         -2.679567   1.581733   -2.909569 H        1 UNL1     0.0362
     68 H         -3.608266   -0.397124   -3.103523 H        1 UNL1     0.0741
     69 H         -3.070599   -2.485044   -1.561482 H        1 UNL1     0.0359
     70 H         -3.221838   -2.432971   0.668749 H        1 UNL1     0.0600
     71 H         -1.082277   -2.375328   1.02041 H        1 UNL1     0.0348
     72 H         -1.71615   -0.610902   2.575097 H        1 UNL1     0.0602
     73 H         -3.190045   3.269538   -0.271157 H        1 UNL1     0.0628
     74 H         -5.359962   1.782264   1.322614 H        1 UNL1     0.1022
     75 H         3.086642   3.766601   9.232177 H        1 UNL1     0.0279
     76 H         3.948381   4.474018   7.924405 H        1 UNL1     0.0279
     77 H         3.057777   5.478684   9.137982 H        1 UNL1     0.0279
     78 H         2.884556   6.331215   6.358829 H        1 UNL1     0.1553
     79 H         3.096316   4.750061   5.183526 H        1 UNL1     0.1484
     80 H         2.582637   3.833434   1.531756 H        1 UNL1     0.0317
     81 H         2.288718   5.450066   2.156287 H        1 UNL1     0.0317
     82 H         4.313245   5.311327   3.631329 H        1 UNL1     0.0428
     83 H         4.689533   5.06099   1.940932 H        1 UNL1     0.0428
     84 H         4.375354   1.573762   4.3583 H        1 UNL1     0.0428
     85 H         4.149839   3.088155   5.161343 H        1 UNL1     0.0428
     86 H         2.092634   1.823714   4.533692 H        1 UNL1     0.0317
     87 H         2.45596   1.863307   2.869727 H        1 UNL1     0.0317
     88 H         6.432644   3.027307   4.225632 H        1 UNL1     0.0429
     89 H         6.575903   2.494006   2.548938 H        1 UNL1     0.0429
     90 H         6.144176   5.096811   2.032502 H        1 UNL1     0.0308
     91 H         6.998029   5.097124   4.972028 H        1 UNL1     0.0233
     92 H         7.325296   6.473625   3.888683 H        1 UNL1     0.0233
     93 H         5.677048   5.998332   4.237933 H        1 UNL1     0.0233
     94 H         8.856763   5.000788   2.974965 H        1 UNL1     0.0233
     95 H         8.411866   3.448369   2.249439 H        1 UNL1     0.0233
     96 H         8.238299   4.94963   1.311314 H        1 UNL1     0.0233
     97 H         -4.890283   8.427941   2.737378 H        1 UNL1     0.0280
     98 H         -5.596712   7.860978   4.226236 H        1 UNL1     0.0280
     99 H         -4.550236   9.31167   4.236784 H        1 UNL1     0.0280
     100 H         -1.466409   9.471227   5.533253 H        1 UNL1     0.2922
     101 H         -2.606106   -0.470007   4.973838 H        1 UNL1     0.0236
     102 H         -1.116972   -1.049565   5.818026 H        1 UNL1     0.0236
     103 H         -1.624218   -1.736328   4.30589 H        1 UNL1     0.0236
     104 H         1.044967   -1.279079   3.107345 H        1 UNL1     0.2098
     105 H         0.386335   -1.631425   -0.447199 H        1 UNL1     0.0234
     106 H         -0.95181   -0.717029   -1.198428 H        1 UNL1     0.0234
     107 H         0.0   0.0   0.0 H        1 UNL1     0.0234
     108 H         -4.414343   -1.093342   1.530505 H        1 UNL1     0.2098
     109 H         -1.759059   2.516234   -0.522026 H        1 UNL1     0.0234
     110 H         -0.852322   0.991172   -0.776617 H        1 UNL1     0.0234
     111 H         -0.853929   2.220813   -1.991863 H        1 UNL1     0.0234
     112 H         -3.786949   -1.724922   -4.757566 H        1 UNL1     0.0342
     113 H         -3.1391   -3.4001   -4.868491 H        1 UNL1     0.0342
     114 H         -3.568029   -2.710299   -3.300638 H        1 UNL1     0.0342
     115 H         -5.260153   -2.75185   -1.370104 H        1 UNL1     0.0234
     116 H         -5.610217   -1.058426   -1.00878 H        1 UNL1     0.0234
     117 H         -5.201708   -1.623805   -2.64191 H        1 UNL1     0.0234
     118 H         -2.254183   5.123515   0.411399 H        1 UNL1     0.0309
     119 H         -3.91342   4.959529   -0.242896 H        1 UNL1     0.0309
     120 H         -3.40809   6.38662   0.63472 H        1 UNL1     0.0309
     121 H         -5.192547   -1.134083   -1.7573 H        1 UNL1     0.0524
     122 H         -3.612639   -0.683789   -1.103097 H        1 UNL1     0.0524
     123 H         -4.971268   -0.990788   0.007588 H        1 UNL1     0.0524
@<TRIPOS>BOND
     1     1     2    1
     2     1    42    1
     3     2     3    2
     4     3     4    1
     5     4     5    2
     6     5     7    1
     7     6    75    1
     8     6    76    1
     9     6    77    1
    10     7     9   am
    11     9    10    1
    12    10    11    2
    13    10    43    1
    14    11    14    1
    15    11    15    1
    16    12    13   ar
    17    12    27   ar
    18    12    43    1
    19    13    14    1
    20    13    30   ar
    21    14    17    2
    22    15    16    1
    23    16    17    1
    24    16    18    1
    25    16    22    1
    26    18    19    1
    27    19    20    1
    28    20    21    1
    29    21    22    1
    30    23    24    1
    31    23    88    1
    32    23    89    1
    33    24    25    1
    34    24    26    1
    35    24    90    1
    36    25    91    1
    37    25    92    1
    38    25    93    1
    39    26    94    1
    40    26    95    1
    41    26    96    1
    42    27    28   ar
    43    28    29   ar
    44    29    30   ar
    45    29    31    1
    46    30    33    1
    47    31    32    1
    48    32    33    1
    49    32    35    1
    50    34    97    1
    51    34    98    1
    52    34    99    1
    53    35    61    1
    54    36    37    1
    55    36    60    1
    56    37    38    1
    57    38    39    1
    58    39    40    1
    59    40    41    1
    60    41    42    1
    61    45   100    1
    62    47   101    1
    63    47   102    1
    64    47   103    1
    65    48   104    1
    66    49   105    1
    67    49   106    1
    68    49   107    1
    69    50   108    1
    70    51    59    1
    71    52   109    1
    72    52   110    1
    73    52   111    1
    74    53    54    1
    75    54    55    2
    76    54    56    1
    77    56   112    1
    78    56   113    1
    79    56   114    1
    80    57   115    1
    81    57   116    1
    82    57   117    1
    83    58   118    1
    84    58   119    1
    85    58   120    1
    86    59   121    1
    87    59   122    1
    88    59   123    1
    89    60    61    2
    90     1    47    1
    91     1    62    1
    92     2    63    1
    93     3    64    1
    94     4    65    1
    95     5     6    1
    96     7     8    2
    97     9    78    1
    98    15    79    1
    99    18    80    1
   100    18    81    1
   101    19    82    1
   102    19    83    1
   103    20    23    1
   104    21    84    1
   105    21    85    1
   106    22    86    1
   107    22    87    1
   108    27    45    1
   109    28    34    1
   110    32    58    1
   111    33    46    2
   112    36    51    1
   113    36    66    1
   114    37    52    1
   115    37    67    1
   116    38    53    1
   117    38    68    1
   118    42    48    1
   119    42    72    1
   120    43    44    2
   121    60    73    1
   122    61    74    1
   123    39    69    1
   124    39    57    1
   125    40    70    1
   126    40    50    1
   127    41    71    1
   128    41    49    1
