@<TRIPOS>MOLECULE
*****
 123 128 0 0 0
SMALL
GASTEIGER

@<TRIPOS>ATOM
     1 C         -0.313747   -1.558664   -4.951894 C.3        1 UNL1     0.0009
     2 C         -1.597161   -1.810517   -6.26584 C.2        1 UNL1     -0.0787
     3 C         -2.334935   -2.688935   -7.149083 C.2        1 UNL1     -0.0649
     4 C         -3.626803   -2.293156   -8.169274 C.2        1 UNL1     -0.0542
     5 C         -4.731924   -2.803006   -8.894422 C.2        1 UNL1     0.0115
     6 C         -5.422635   -4.107053   -9.379916 C.3        1 UNL1     -0.0348
     7 C         -5.881672   -1.789772   -9.372359 C.2        1 UNL1     0.2441
     8 O         -5.973032   -1.381421   -10.521893 O.2        1 UNL1     -0.2702
     9 N         -6.927146   -1.60806   -8.450341 N.am        1 UNL1     -0.2772
     10 C         -6.623106   -0.591999   -7.573699 C.2        1 UNL1     0.1049
     11 C         -5.861042   -0.918738   -6.54573 C.2        1 UNL1     0.0801
     12 C         -5.801625   1.768938   -7.481604 C.ar        1 UNL1     0.0753
     13 C         -4.847968   1.316674   -6.514855 C.ar        1 UNL1     0.0305
     14 C         -4.934621   -0.014894   -5.919482 C.2        1 UNL1     0.0924
     15 N         -5.497247   -2.129956   -6.090614 N.pl3        1 UNL1     -0.3170
     16 C         -4.805244   -1.941047   -4.843337 C.3        1 UNL1     0.1275
     17 N         -4.20665   -0.559639   -4.948792 N.2        1 UNL1     -0.2557
     18 C         -5.863115   -1.8616   -3.746844 C.3        1 UNL1     0.0016
     19 C         -6.719776   -3.116293   -3.805734 C.3        1 UNL1     0.0026
     20 N         -5.860985   -4.27809   -3.62206 N.3        1 UNL1     -0.3018
     21 C         -4.773262   -4.407066   -4.593961 C.3        1 UNL1     0.0026
     22 C         -3.922869   -3.138047   -4.514473 C.3        1 UNL1     0.0016
     23 C         -6.605454   -5.494393   -3.363185 C.3        1 UNL1     0.0012
     24 C         -5.848543   -6.715592   -3.908634 C.3        1 UNL1     -0.0339
     25 C         -4.332847   -6.582808   -3.687069 C.3        1 UNL1     -0.0615
     26 C         -6.395224   -7.988175   -3.285374 C.3        1 UNL1     -0.0615
     27 C         -5.784372   3.079047   -7.954292 C.ar        1 UNL1     0.1347
     28 C         -4.889964   4.034872   -7.506537 C.ar        1 UNL1     0.0342
     29 C         -3.929648   3.55397   -6.591283 C.ar        1 UNL1     0.1435
     30 C         -3.912155   2.234989   -6.136085 C.ar        1 UNL1     0.0774
     31 O         -3.059498   4.387123   -5.979972 O.3        1 UNL1     -0.4436
     32 C         -2.605367   3.657252   -4.830222 C.3        1 UNL1     0.3143
     33 C         -2.832412   2.19852   -5.171932 C.2        1 UNL1     0.2504
     34 C         -4.969116   5.511656   -7.776618 C.3        1 UNL1     -0.0327
     35 O         -1.188301   3.848197   -4.736858 O.2        1 UNL1     -0.4528
     36 C         -0.352164   3.644638   -1.039896 C.3        1 UNL1     0.0854
     37 C         -0.629173   2.475052   -0.018691 C.3        1 UNL1     0.0236
     38 C         0.665314   1.937197   0.760256 C.3        1 UNL1     0.1131
     39 C         1.960807   1.53538   -0.05369 C.3        1 UNL1     0.0200
     40 C         1.833524   0.64648   -1.459426 C.3        1 UNL1     0.0661
     41 C         0.946441   -0.786559   -1.652021 C.3        1 UNL1     0.0091
     42 C         0.06224   -1.451198   -3.115526 C.3        1 UNL1     0.0661
     43 C         -6.865548   0.821725   -7.897676 C.2        1 UNL1     0.2131
     44 O         -7.926779   1.171732   -8.381433 O.2        1 UNL1     -0.2851
     45 O         -6.71851   3.425795   -8.928248 O.3        1 UNL1     -0.5056
     46 O         -2.240409   1.22674   -4.758375 O.2        1 UNL1     -0.2836
     47 C         1.110077   -1.681292   -5.558252 C.3        1 UNL1     -0.0566
     48 O         0.633827   -2.813274   -2.984562 O.3        1 UNL1     -0.3909
     49 C         0.022805   -0.951895   -0.465827 C.3        1 UNL1     -0.0577
     50 O         1.629351   1.494306   -2.571733 O.3        1 UNL1     -0.3910
     51 O         1.004049   3.952358   -1.271031 O.3        1 UNL1     -0.3753
     52 C         -1.753068   1.51362   -0.526094 C.3        1 UNL1     -0.0564
     53 O         0.33831   1.091025   1.955827 O.3        1 UNL1     -0.4608
     54 C         0.489641   -0.268787   2.032898 C.2        1 UNL1     0.3042
     55 O         1.134192   -0.902409   2.867713 O.2        1 UNL1     -0.2512
     56 C         -0.285621   -1.020328   0.988451 C.3        1 UNL1     0.0332
     57 C         2.939449   2.800457   -0.057879 C.3        1 UNL1     -0.0567
     58 C         -3.543784   4.048584   -3.664992 C.3        1 UNL1     0.0210
     59 C         1.229925   4.974903   -2.240179 C.3        1 UNL1     0.0372
     60 C         -0.987959   3.477347   -2.375163 C.2        1 UNL1     -0.0208
     61 C         -0.491706   3.666006   -3.598636 C.2        1 UNL1     0.0882
     62 H         -0.559425   -0.489886   -4.943732 H        1 UNL1     0.0365
     63 H         -1.881985   -0.776871   -6.473014 H        1 UNL1     0.0576
     64 H         -2.215251   -3.773887   -7.108311 H        1 UNL1     0.0615
     65 H         -3.607915   -1.20042   -8.201751 H        1 UNL1     0.0622
     66 H         -0.829346   4.525181   -0.587141 H        1 UNL1     0.0645
     67 H         -1.1912   2.960007   0.798318 H        1 UNL1     0.0362
     68 H         0.939167   2.848663   1.313209 H        1 UNL1     0.0741
     69 H         2.582045   0.905947   0.569437 H        1 UNL1     0.0359
     70 H         2.880303   0.302012   -1.562655 H        1 UNL1     0.0600
     71 H         1.731937   -1.532635   -1.421106 H        1 UNL1     0.0348
     72 H         0.774064   -0.707913   -3.503017 H        1 UNL1     0.0602
     73 H         -2.02378   3.282763   -2.246863 H        1 UNL1     0.0628
     74 H         0.566243   3.812061   -3.819203 H        1 UNL1     0.1022
     75 H         -6.486327   -3.908028   -9.655565 H        1 UNL1     0.0279
     76 H         -5.025894   -4.557411   -10.287023 H        1 UNL1     0.0279
     77 H         -5.541959   -4.849339   -8.577125 H        1 UNL1     0.0279
     78 H         -7.052317   -2.457336   -7.903403 H        1 UNL1     0.1553
     79 H         -5.978379   -2.97955   -6.322209 H        1 UNL1     0.1484
     80 H         -5.364211   -1.762501   -2.775226 H        1 UNL1     0.0317
     81 H         -6.488552   -0.970965   -3.87033 H        1 UNL1     0.0317
     82 H         -7.279474   -3.183164   -4.750286 H        1 UNL1     0.0428
     83 H         -7.468463   -3.038076   -3.01681 H        1 UNL1     0.0428
     84 H         -4.09647   -5.241798   -4.38663 H        1 UNL1     0.0428
     85 H         -5.150744   -4.614393   -5.604822 H        1 UNL1     0.0428
     86 H         -3.067688   -3.323064   -5.137708 H        1 UNL1     0.0317
     87 H         -3.489543   -3.039566   -3.511664 H        1 UNL1     0.0317
     88 H         -6.71085   -5.605473   -2.276057 H        1 UNL1     0.0429
     89 H         -7.61909   -5.437953   -3.780474 H        1 UNL1     0.0429
     90 H         -6.037662   -6.80405   -4.985027 H        1 UNL1     0.0308
     91 H         -3.789965   -7.417486   -4.140603 H        1 UNL1     0.0233
     92 H         -3.96205   -5.64417   -4.105491 H        1 UNL1     0.0233
     93 H         -4.065803   -6.570068   -2.623415 H        1 UNL1     0.0233
     94 H         -6.845789   -7.76841   -2.311449 H        1 UNL1     0.0233
     95 H         -7.171029   -8.41512   -3.927096 H        1 UNL1     0.0233
     96 H         -5.60706   -8.732521   -3.141445 H        1 UNL1     0.0233
     97 H         -4.061641   5.890895   -8.23694 H        1 UNL1     0.0280
     98 H         -5.784291   5.762848   -8.46774 H        1 UNL1     0.0280
     99 H         -5.127857   6.052121   -6.829099 H        1 UNL1     0.0280
     100 H         -6.468433   4.154402   -9.468819 H        1 UNL1     0.2922
     101 H         1.766987   -0.937749   -5.107397 H        1 UNL1     0.0236
     102 H         1.118574   -1.628418   -6.646422 H        1 UNL1     0.0236
     103 H         1.579466   -2.650444   -5.320324 H        1 UNL1     0.0236
     104 H         0.085526   -3.302556   -2.340403 H        1 UNL1     0.2098
     105 H         -0.998269   -1.219738   -0.725595 H        1 UNL1     0.0234
     106 H         0.399175   -1.611573   0.3159 H        1 UNL1     0.0234
     107 H         0.0   0.0   0.0 H        1 UNL1     0.0234
     108 H         0.707384   1.813405   -2.527902 H        1 UNL1     0.2098
     109 H         -2.759053   1.89284   -0.298279 H        1 UNL1     0.0234
     110 H         -1.678816   1.291547   -1.5961 H        1 UNL1     0.0234
     111 H         -1.690723   0.528515   -0.044815 H        1 UNL1     0.0234
     112 H         0.084536   -2.047611   0.917609 H        1 UNL1     0.0342
     113 H         -1.357004   -1.003595   1.182622 H        1 UNL1     0.0342
     114 H         -0.115505   -0.533405   0.018332 H        1 UNL1     0.0342
     115 H         2.818107   3.413657   0.845698 H        1 UNL1     0.0234
     116 H         3.997283   2.543134   -0.140467 H        1 UNL1     0.0234
     117 H         2.705086   3.535322   -0.847175 H        1 UNL1     0.0234
     118 H         -3.565145   3.279085   -2.873525 H        1 UNL1     0.0309
     119 H         -3.29302   5.015634   -3.217627 H        1 UNL1     0.0309
     120 H         -4.591888   4.120747   -3.975438 H        1 UNL1     0.0309
     121 H         2.295965   5.200547   -2.239035 H        1 UNL1     0.0524
     122 H         0.96   4.652204   -3.259513 H        1 UNL1     0.0524
     123 H         0.65836   5.863848   -1.988815 H        1 UNL1     0.0524
@<TRIPOS>BOND
     1     1     2    1
     2     1    42    1
     3     2     3    2
     4     3     4    1
     5     4     5    2
     6     5     7    1
     7     6    75    1
     8     6    76    1
     9     6    77    1
    10     7     9   am
    11     9    10    1
    12    10    11    2
    13    10    43    1
    14    11    14    1
    15    11    15    1
    16    12    13   ar
    17    12    27   ar
    18    12    43    1
    19    13    14    1
    20    13    30   ar
    21    14    17    2
    22    15    16    1
    23    16    17    1
    24    16    18    1
    25    16    22    1
    26    18    19    1
    27    19    20    1
    28    20    21    1
    29    21    22    1
    30    23    24    1
    31    23    88    1
    32    23    89    1
    33    24    25    1
    34    24    26    1
    35    24    90    1
    36    25    91    1
    37    25    92    1
    38    25    93    1
    39    26    94    1
    40    26    95    1
    41    26    96    1
    42    27    28   ar
    43    28    29   ar
    44    29    30   ar
    45    29    31    1
    46    30    33    1
    47    31    32    1
    48    32    33    1
    49    32    35    1
    50    34    97    1
    51    34    98    1
    52    34    99    1
    53    35    61    1
    54    36    37    1
    55    36    60    1
    56    37    38    1
    57    38    39    1
    58    39    40    1
    59    40    41    1
    60    41    42    1
    61    45   100    1
    62    47   101    1
    63    47   102    1
    64    47   103    1
    65    48   104    1
    66    49   105    1
    67    49   106    1
    68    49   107    1
    69    50   108    1
    70    51    59    1
    71    52   109    1
    72    52   110    1
    73    52   111    1
    74    53    54    1
    75    54    55    2
    76    54    56    1
    77    56   112    1
    78    56   113    1
    79    56   114    1
    80    57   115    1
    81    57   116    1
    82    57   117    1
    83    58   118    1
    84    58   119    1
    85    58   120    1
    86    59   121    1
    87    59   122    1
    88    59   123    1
    89    60    61    2
    90     1    47    1
    91     1    62    1
    92     2    63    1
    93     3    64    1
    94     4    65    1
    95     5     6    1
    96     7     8    2
    97     9    78    1
    98    15    79    1
    99    18    80    1
   100    18    81    1
   101    19    82    1
   102    19    83    1
   103    20    23    1
   104    21    84    1
   105    21    85    1
   106    22    86    1
   107    22    87    1
   108    27    45    1
   109    28    34    1
   110    32    58    1
   111    33    46    2
   112    36    51    1
   113    36    66    1
   114    37    52    1
   115    37    67    1
   116    38    53    1
   117    38    68    1
   118    42    48    1
   119    42    72    1
   120    43    44    2
   121    60    73    1
   122    61    74    1
   123    39    69    1
   124    39    57    1
   125    40    70    1
   126    40    50    1
   127    41    71    1
   128    41    49    1
