@<TRIPOS>MOLECULE
*****
 123 128 0 0 0
SMALL
GASTEIGER

@<TRIPOS>ATOM
     1 C         5.167057   1.749372   0.490394 C.3        1 UNL1     0.0009
     2 C         6.603321   2.556143   -0.360078 C.2        1 UNL1     -0.0787
     3 C         7.884985   2.4585   -1.026298 C.2        1 UNL1     -0.0649
     4 C         8.761974   3.694149   -1.781561 C.2        1 UNL1     -0.0542
     5 C         9.781628   3.987434   -2.720373 C.2        1 UNL1     0.0115
     6 C         10.909627   3.36261   -3.586708 C.3        1 UNL1     -0.0348
     7 C         9.876519   5.471013   -3.326159 C.2        1 UNL1     0.2441
     8 O         10.700401   6.292601   -2.948354 O.2        1 UNL1     -0.2702
     9 N         9.125859   5.678453   -4.496471 N.am        1 UNL1     -0.2772
     10 C         7.84319   6.064769   -4.182077 C.2        1 UNL1     0.1049
     11 C         6.997662   5.093072   -3.890343 C.2        1 UNL1     0.0801
     12 C         6.545029   7.670497   -2.770075 C.ar        1 UNL1     0.0753
     13 C         5.786307   6.542233   -2.322895 C.ar        1 UNL1     0.0305
     14 C         5.903224   5.236878   -2.968983 C.2        1 UNL1     0.0924
     15 N         7.12044   3.764195   -4.050147 N.pl3        1 UNL1     -0.3170
     16 C         5.850785   3.164662   -3.735835 C.3        1 UNL1     0.1275
     17 N         5.214571   4.119298   -2.75521 N.2        1 UNL1     -0.2557
     18 C         4.99749   3.224235   -4.99918 C.3        1 UNL1     0.0016
     19 C         5.75209   2.540836   -6.128399 C.3        1 UNL1     0.0026
     20 N         6.022587   1.162582   -5.743331 N.3        1 UNL1     -0.3018
     21 C         6.786398   1.001683   -4.504351 C.3        1 UNL1     0.0026
     22 C         6.00793   1.691511   -3.382736 C.3        1 UNL1     0.0016
     23 C         6.46684   0.343678   -6.853591 C.3        1 UNL1     0.0012
     24 C         5.311095   0.094513   -7.835389 C.3        1 UNL1     -0.0339
     25 C         5.346238   1.087261   -9.008962 C.3        1 UNL1     -0.0615
     26 C         5.34026   -1.344735   -8.319635 C.3        1 UNL1     -0.0615
     27 C         6.340353   8.937885   -2.229748 C.ar        1 UNL1     0.1347
     28 C         5.381584   9.206794   -1.269279 C.ar        1 UNL1     0.0342
     29 C         4.680364   8.071999   -0.809176 C.ar        1 UNL1     0.1435
     30 C         4.899837   6.790262   -1.31534 C.ar        1 UNL1     0.0774
     31 O         3.639652   8.184969   0.044734 O.3        1 UNL1     -0.4436
     32 C         2.918122   6.952105   -0.097795 C.3        1 UNL1     0.3143
     33 C         3.931392   5.95943   -0.630798 C.2        1 UNL1     0.2504
     34 C         4.934681   10.572605   -0.82776 C.3        1 UNL1     -0.0327
     35 O         2.558016   6.514686   1.218351 O.2        1 UNL1     -0.4528
     36 C         -0.68486   4.58218   0.821789 C.3        1 UNL1     0.0854
     37 C         -0.99028   3.321996   -0.076085 C.3        1 UNL1     0.0236
     38 C         -1.590356   2.060462   0.711434 C.3        1 UNL1     0.1131
     39 C         -0.864053   1.528995   2.012317 C.3        1 UNL1     0.0200
     40 C         0.797177   1.383695   2.052825 C.3        1 UNL1     0.0661
     41 C         1.756255   0.615601   0.883291 C.3        1 UNL1     0.0091
     42 C         3.463585   0.978711   0.318862 C.3        1 UNL1     0.0661
     43 C         7.494707   7.463504   -3.89147 C.2        1 UNL1     0.2131
     44 O         7.894192   8.362003   -4.609696 O.2        1 UNL1     -0.2851
     45 O         7.152292   9.973349   -2.688012 O.3        1 UNL1     -0.5056
     46 O         3.947619   4.755833   -0.500623 O.2        1 UNL1     -0.2836
     47 C         5.563999   1.319247   1.928244 C.3        1 UNL1     -0.0566
     48 O         3.912402   -0.432363   0.399791 O.3        1 UNL1     -0.3909
     49 C         0.921664   0.38349   -0.356498 C.3        1 UNL1     -0.0577
     50 O         1.397322   2.601458   2.446018 O.3        1 UNL1     -0.3910
     51 O         -0.808422   4.391799   2.213162 O.3        1 UNL1     -0.3753
     52 C         0.05379   3.162259   -1.22906 C.3        1 UNL1     -0.0564
     53 O         -2.193115   1.021826   -0.188701 O.3        1 UNL1     -0.4608
     54 C         -2.427197   -0.28513   0.150418 C.2        1 UNL1     0.3042
     55 O         -1.858097   -1.283954   -0.288118 O.2        1 UNL1     -0.2512
     56 C         -3.466806   -0.451465   1.221987 C.3        1 UNL1     0.0332
     57 C         -1.584736   2.197254   3.274149 C.3        1 UNL1     -0.0567
     58 C         1.8425   7.197558   -1.181455 C.3        1 UNL1     0.0210
     59 C         -1.12154   5.570392   2.953934 C.3        1 UNL1     0.0372
     60 C         0.643954   5.211586   0.591005 C.2        1 UNL1     -0.0208
     61 C         1.557133   5.646537   1.460296 C.2        1 UNL1     0.0882
     62 H         4.691014   2.733427   0.578315 H        1 UNL1     0.0365
     63 H         6.336947   3.609849   -0.254162 H        1 UNL1     0.0576
     64 H         8.342712   1.491831   -1.247983 H        1 UNL1     0.0615
     65 H         8.274872   4.609299   -1.434121 H        1 UNL1     0.0622
     66 H         -1.429739   5.328742   0.512199 H        1 UNL1     0.0645
     67 H         -1.856097   3.631524   -0.686915 H        1 UNL1     0.0362
     68 H         -2.537367   2.497018   1.063726 H        1 UNL1     0.0741
     69 H         -1.195347   0.51775   2.207346 H        1 UNL1     0.0359
     70 H         0.909375   0.722953   2.933672 H        1 UNL1     0.0600
     71 H         1.800152   -0.405765   1.30972 H        1 UNL1     0.0348
     72 H         3.357982   1.466424   1.298811 H        1 UNL1     0.0602
     73 H         0.761443   5.409357   -0.445494 H        1 UNL1     0.0628
     74 H         1.540009   5.435351   2.530037 H        1 UNL1     0.1022
     75 H         10.952258   2.256852   -3.436652 H        1 UNL1     0.0279
     76 H         10.797065   3.448501   -4.665143 H        1 UNL1     0.0279
     77 H         11.914888   3.664864   -3.258389 H        1 UNL1     0.0279
     78 H         9.063803   4.808749   -5.021677 H        1 UNL1     0.1553
     79 H         7.785552   3.336606   -4.667988 H        1 UNL1     0.1484
     80 H         4.036356   2.733058   -4.804933 H        1 UNL1     0.0317
     81 H         4.770622   4.261084   -5.2696 H        1 UNL1     0.0317
     82 H         6.68258   3.072402   -6.376467 H        1 UNL1     0.0428
     83 H         5.126604   2.596313   -7.01988 H        1 UNL1     0.0428
     84 H         6.906993   -0.041399   -4.195729 H        1 UNL1     0.0428
     85 H         7.816396   1.369926   -4.608367 H        1 UNL1     0.0428
     86 H         6.524724   1.44079   -2.474963 H        1 UNL1     0.0317
     87 H         5.028605   1.213662   -3.257519 H        1 UNL1     0.0317
     88 H         7.262627   0.885852   -7.38091 H        1 UNL1     0.0429
     89 H         6.899711   -0.602197   -6.503278 H        1 UNL1     0.0429
     90 H         4.358237   0.213185   -7.306057 H        1 UNL1     0.0308
     91 H         6.29922   1.03689   -9.544116 H        1 UNL1     0.0233
     92 H         4.531122   0.887496   -9.708454 H        1 UNL1     0.0233
     93 H         5.220066   2.126193   -8.681036 H        1 UNL1     0.0233
     94 H         4.645486   -1.475908   -9.156246 H        1 UNL1     0.0233
     95 H         6.343678   -1.600311   -8.67148 H        1 UNL1     0.0233
     96 H         5.057728   -2.039383   -7.523639 H        1 UNL1     0.0233
     97 H         4.135324   10.522483   -0.094447 H        1 UNL1     0.0280
     98 H         5.745096   11.139063   -0.350676 H        1 UNL1     0.0280
     99 H         4.569404   11.140876   -1.698814 H        1 UNL1     0.0280
     100 H         6.685038   10.724565   -3.008906 H        1 UNL1     0.2922
     101 H         4.701439   0.88523   2.433492 H        1 UNL1     0.0236
     102 H         6.014865   2.124386   2.507428 H        1 UNL1     0.0236
     103 H         6.320374   0.516697   1.926484 H        1 UNL1     0.0236
     104 H         4.331959   -0.558795   1.273265 H        1 UNL1     0.2098
     105 H         0.708665   1.282562   -0.929311 H        1 UNL1     0.0234
     106 H         1.290936   -0.40416   -1.013134 H        1 UNL1     0.0234
     107 H         0.0   -0.0   0.0 H        1 UNL1     0.0234
     108 H         1.203809   3.25835   1.749731 H        1 UNL1     0.2098
     109 H         1.078782   3.048765   -0.849295 H        1 UNL1     0.0234
     110 H         -0.178771   2.335445   -1.908794 H        1 UNL1     0.0234
     111 H         0.074602   4.045386   -1.88144 H        1 UNL1     0.0234
     112 H         -3.589944   -1.512477   1.459553 H        1 UNL1     0.0342
     113 H         -3.229657   0.124022   2.115529 H        1 UNL1     0.0342
     114 H         -4.424423   -0.080436   0.831512 H        1 UNL1     0.0342
     115 H         -2.654306   1.94879   3.312528 H        1 UNL1     0.0234
     116 H         -1.147881   1.917107   4.234734 H        1 UNL1     0.0234
     117 H         -1.623527   3.299127   3.226058 H        1 UNL1     0.0234
     118 H         0.940877   7.682715   -0.76829 H        1 UNL1     0.0309
     119 H         2.211037   7.7873   -2.026788 H        1 UNL1     0.0309
     120 H         1.455027   6.265776   -1.60778 H        1 UNL1     0.0309
     121 H         -0.300653   6.273754   2.816879 H        1 UNL1     0.0524
     122 H         -2.041547   6.059459   2.592771 H        1 UNL1     0.0524
     123 H         -1.239086   5.332133   4.007266 H        1 UNL1     0.0524
@<TRIPOS>BOND
     1     1     2    1
     2     1    42    1
     3     2     3    2
     4     3     4    1
     5     4     5    2
     6     5     7    1
     7     6    75    1
     8     6    76    1
     9     6    77    1
    10     7     9   am
    11     9    10    1
    12    10    11    2
    13    10    43    1
    14    11    14    1
    15    11    15    1
    16    12    13   ar
    17    12    27   ar
    18    12    43    1
    19    13    14    1
    20    13    30   ar
    21    14    17    2
    22    15    16    1
    23    16    17    1
    24    16    18    1
    25    16    22    1
    26    18    19    1
    27    19    20    1
    28    20    21    1
    29    21    22    1
    30    23    24    1
    31    23    88    1
    32    23    89    1
    33    24    25    1
    34    24    26    1
    35    24    90    1
    36    25    91    1
    37    25    92    1
    38    25    93    1
    39    26    94    1
    40    26    95    1
    41    26    96    1
    42    27    28   ar
    43    28    29   ar
    44    29    30   ar
    45    29    31    1
    46    30    33    1
    47    31    32    1
    48    32    33    1
    49    32    35    1
    50    34    97    1
    51    34    98    1
    52    34    99    1
    53    35    61    1
    54    36    37    1
    55    36    60    1
    56    37    38    1
    57    38    39    1
    58    39    40    1
    59    40    41    1
    60    41    42    1
    61    45   100    1
    62    47   101    1
    63    47   102    1
    64    47   103    1
    65    48   104    1
    66    49   105    1
    67    49   106    1
    68    49   107    1
    69    50   108    1
    70    51    59    1
    71    52   109    1
    72    52   110    1
    73    52   111    1
    74    53    54    1
    75    54    55    2
    76    54    56    1
    77    56   112    1
    78    56   113    1
    79    56   114    1
    80    57   115    1
    81    57   116    1
    82    57   117    1
    83    58   118    1
    84    58   119    1
    85    58   120    1
    86    59   121    1
    87    59   122    1
    88    59   123    1
    89    60    61    2
    90     1    47    1
    91     1    62    1
    92     2    63    1
    93     3    64    1
    94     4    65    1
    95     5     6    1
    96     7     8    2
    97     9    78    1
    98    15    79    1
    99    18    80    1
   100    18    81    1
   101    19    82    1
   102    19    83    1
   103    20    23    1
   104    21    84    1
   105    21    85    1
   106    22    86    1
   107    22    87    1
   108    27    45    1
   109    28    34    1
   110    32    58    1
   111    33    46    2
   112    36    51    1
   113    36    66    1
   114    37    52    1
   115    37    67    1
   116    38    53    1
   117    38    68    1
   118    42    48    1
   119    42    72    1
   120    43    44    2
   121    60    73    1
   122    61    74    1
   123    39    69    1
   124    39    57    1
   125    40    70    1
   126    40    50    1
   127    41    71    1
   128    41    49    1
