@<TRIPOS>MOLECULE
*****
 123 128 0 0 0
SMALL
GASTEIGER

@<TRIPOS>ATOM
     1 C         3.055563   -1.585738   -3.247878 C.3        1 UNL1     0.0009
     2 C         3.455982   -3.18522   -4.095439 C.2        1 UNL1     -0.0787
     3 C         4.104472   -4.479632   -4.093759 C.2        1 UNL1     -0.0649
     4 C         3.99935   -5.697684   -5.264937 C.2        1 UNL1     -0.0542
     5 C         4.177693   -7.079353   -5.522349 C.2        1 UNL1     0.0115
     6 C         4.749249   -8.402171   -4.942005 C.3        1 UNL1     -0.0348
     7 C         3.477714   -7.725549   -6.814421 C.2        1 UNL1     0.2441
     8 O         4.087412   -7.980771   -7.843817 O.2        1 UNL1     -0.2702
     9 N         2.179641   -8.219021   -6.59615 N.am        1 UNL1     -0.2772
     10 C         1.24879   -7.22463   -6.791151 C.2        1 UNL1     0.1049
     11 C         1.041358   -6.413173   -5.770009 C.2        1 UNL1     0.0801
     12 C         0.564064   -5.436516   -8.40085 C.ar        1 UNL1     0.0753
     13 C         0.556803   -4.542405   -7.283209 C.ar        1 UNL1     0.0305
     14 C         0.667388   -5.031991   -5.910938 C.2        1 UNL1     0.0924
     15 N         1.435813   -6.517954   -4.489402 N.pl3        1 UNL1     -0.3170
     16 C         0.803471   -5.460091   -3.74689 C.3        1 UNL1     0.1275
     17 N         0.58053   -4.366424   -4.762721 N.2        1 UNL1     -0.2557
     18 C         -0.582991   -5.955022   -3.346304 C.3        1 UNL1     0.0016
     19 C         -0.430929   -7.257758   -2.577314 C.3        1 UNL1     0.0026
     20 N         0.397713   -7.014704   -1.40458 N.3        1 UNL1     -0.3018
     21 C         1.730831   -6.477924   -1.685706 C.3        1 UNL1     0.0026
     22 C         1.554133   -5.167325   -2.454473 C.3        1 UNL1     0.0016
     23 C         0.359556   -8.105673   -0.451179 C.3        1 UNL1     0.0012
     24 C         -0.61181   -9.19926   -0.922635 C.3        1 UNL1     -0.0339
     25 C         -0.959189   -9.038979   -2.411828 C.3        1 UNL1     -0.0615
     26 C         -0.032892   -10.572213   -0.628298 C.3        1 UNL1     -0.0615
     27 C         0.33733   -4.975423   -9.695494 C.ar        1 UNL1     0.1347
     28 C         0.053797   -3.6539   -9.990853 C.ar        1 UNL1     0.0342
     29 C         0.100246   -2.783668   -8.881033 C.ar        1 UNL1     0.1435
     30 C         0.361785   -3.225471   -7.583486 C.ar        1 UNL1     0.0774
     31 O         -0.260857   -1.486233   -8.987211 O.3        1 UNL1     -0.4436
     32 C         -0.539081   -1.075808   -7.639986 C.3        1 UNL1     0.3143
     33 C         0.23796   -2.037883   -6.764298 C.2        1 UNL1     0.2504
     34 C         -0.4448   -3.132629   -11.30986 C.3        1 UNL1     -0.0327
     35 O         0.047248   0.219141   -7.459492 O.2        1 UNL1     -0.4528
     36 C         -2.122395   1.99654   -4.901839 C.3        1 UNL1     0.0854
     37 C         -2.493367   1.557818   -3.433021 C.3        1 UNL1     0.0236
     38 C         -2.148017   2.636638   -2.297846 C.3        1 UNL1     0.1131
     39 C         -0.700851   3.272051   -2.232814 C.3        1 UNL1     0.0200
     40 C         0.651666   2.314424   -2.422782 C.3        1 UNL1     0.0661
     41 C         0.964375   0.862633   -1.602949 C.3        1 UNL1     0.0091
     42 C         1.864925   -0.640532   -2.146003 C.3        1 UNL1     0.0661
     43 C         0.732276   -6.884995   -8.125398 C.2        1 UNL1     0.2131
     44 O         0.376536   -7.761648   -8.891991 O.2        1 UNL1     -0.2851
     45 O         0.406774   -5.903673   -10.7323 O.3        1 UNL1     -0.5056
     46 O         0.675653   -1.857017   -5.650042 O.2        1 UNL1     -0.2836
     47 C         4.294587   -0.65043   -3.248028 C.3        1 UNL1     -0.0566
     48 O         2.670956   -0.744295   -0.905574 O.3        1 UNL1     -0.3909
     49 C         -0.309045   0.396286   -0.93331 C.3        1 UNL1     -0.0577
     50 O         0.980683   2.177483   -3.790524 O.3        1 UNL1     -0.3910
     51 O         -1.382906   3.190974   -5.019804 O.3        1 UNL1     -0.3753
     52 C         -2.283533   0.023968   -3.213421 C.3        1 UNL1     -0.0564
     53 O         -2.815495   2.359129   -0.982632 O.3        1 UNL1     -0.4608
     54 C         -2.190334   1.889833   0.14292 C.2        1 UNL1     0.3042
     55 O         -1.791416   0.745102   0.353379 O.2        1 UNL1     -0.2512
     56 C         -1.941808   2.949088   1.178742 C.3        1 UNL1     0.0332
     57 C         -0.747901   4.660897   -3.024691 C.3        1 UNL1     -0.0567
     58 C         -2.051547   -1.307454   -7.415669 C.3        1 UNL1     0.0210
     59 C         -0.263564   3.118327   -5.901656 C.3        1 UNL1     0.0372
     60 C         -1.406154   0.967301   -5.703603 C.2        1 UNL1     -0.0208
     61 C         -0.338765   1.077066   -6.495673 C.2        1 UNL1     0.0882
     62 H         2.447984   -1.300417   -4.115145 H        1 UNL1     0.0365
     63 H         3.000579   -3.016892   -5.073571 H        1 UNL1     0.0576
     64 H         4.617827   -4.861534   -3.208476 H        1 UNL1     0.0615
     65 H         3.548764   -5.194378   -6.124669 H        1 UNL1     0.0622
     66 H         -3.091514   2.144892   -5.398676 H        1 UNL1     0.0645
     67 H         -3.597094   1.571128   -3.419941 H        1 UNL1     0.0362
     68 H         -2.812232   3.455398   -2.614029 H        1 UNL1     0.0741
     69 H         -0.552405   3.699824   -1.250276 H        1 UNL1     0.0359
     70 H         1.425454   2.995036   -2.018951 H        1 UNL1     0.0600
     71 H         1.536166   1.249187   -0.736584 H        1 UNL1     0.0348
     72 H         2.189409   0.166881   -2.818394 H        1 UNL1     0.0602
     73 H         -1.953691   0.05814   -5.673957 H        1 UNL1     0.0628
     74 H         0.309094   1.95319   -6.539529 H        1 UNL1     0.1022
     75 H         4.672967   -8.406735   -3.827916 H        1 UNL1     0.0279
     76 H         4.228808   -9.317064   -5.216197 H        1 UNL1     0.0279
     77 H         5.835782   -8.494994   -5.085295 H        1 UNL1     0.0279
     78 H         2.091787   -8.536264   -5.63297 H        1 UNL1     0.1553
     79 H         1.730181   -7.378741   -4.065932 H        1 UNL1     0.1484
     80 H         -1.07523   -5.186248   -2.738478 H        1 UNL1     0.0317
     81 H         -1.213693   -6.108477   -4.228527 H        1 UNL1     0.0317
     82 H         -0.004408   -8.053795   -3.205261 H        1 UNL1     0.0428
     83 H         -1.43132   -7.593915   -2.302966 H        1 UNL1     0.0428
     84 H         2.302408   -6.229648   -0.786 H        1 UNL1     0.0428
     85 H         2.362959   -7.207525   -2.210504 H        1 UNL1     0.0428
     86 H         2.536555   -4.738628   -2.525564 H        1 UNL1     0.0317
     87 H         1.005222   -4.443447   -1.839825 H        1 UNL1     0.0317
     88 H         1.366823   -8.537445   -0.385742 H        1 UNL1     0.0429
     89 H         0.0968   -7.748712   0.552968 H        1 UNL1     0.0429
     90 H         -1.537691   -9.133212   -0.339029 H        1 UNL1     0.0308
     91 H         -1.738771   -9.743643   -2.716463 H        1 UNL1     0.0233
     92 H         -1.293819   -8.020629   -2.623001 H        1 UNL1     0.0233
     93 H         -0.095706   -9.218487   -3.063755 H        1 UNL1     0.0233
     94 H         0.254432   -11.068913   -1.561341 H        1 UNL1     0.0233
     95 H         0.862831   -10.474971   -0.008469 H        1 UNL1     0.0233
     96 H         -0.755456   -11.206651   -0.107378 H        1 UNL1     0.0233
     97 H         -0.259807   -3.831321   -12.120315 H        1 UNL1     0.0280
     98 H         -1.528964   -2.959994   -11.303482 H        1 UNL1     0.0280
     99 H         0.064231   -2.184367   -11.548151 H        1 UNL1     0.0280
     100 H         0.53424   -5.528445   -11.585868 H        1 UNL1     0.2922
     101 H         5.206121   -1.247717   -3.251429 H        1 UNL1     0.0236
     102 H         4.284062   0.075105   -2.435335 H        1 UNL1     0.0236
     103 H         4.3547   -0.042839   -4.166402 H        1 UNL1     0.0236
     104 H         3.546789   -0.351663   -1.089227 H        1 UNL1     0.2098
     105 H         -1.028845   1.186985   -0.737111 H        1 UNL1     0.0234
     106 H         -0.797742   -0.446881   -1.42134 H        1 UNL1     0.0234
     107 H         0.0   -0.0   0.0 H        1 UNL1     0.0234
     108 H         0.91283   1.228654   -4.011632 H        1 UNL1     0.2098
     109 H         -1.342931   -0.196408   -2.689574 H        1 UNL1     0.0234
     110 H         -3.116844   -0.453366   -2.68665 H        1 UNL1     0.0234
     111 H         -2.226463   -0.517356   -4.16718 H        1 UNL1     0.0234
     112 H         -2.769168   3.665179   1.184694 H        1 UNL1     0.0342
     113 H         -1.785371   2.524573   2.169276 H        1 UNL1     0.0342
     114 H         -1.028061   3.492506   0.901381 H        1 UNL1     0.0342
     115 H         0.194038   5.218217   -2.92808 H        1 UNL1     0.0234
     116 H         -0.960229   4.557197   -4.090623 H        1 UNL1     0.0234
     117 H         -1.467365   5.383652   -2.602862 H        1 UNL1     0.0234
     118 H         -2.358389   -2.333146   -7.685501 H        1 UNL1     0.0309
     119 H         -2.371129   -1.096076   -6.390296 H        1 UNL1     0.0309
     120 H         -2.673519   -0.6793   -8.062724 H        1 UNL1     0.0309
     121 H         -0.116139   2.070459   -6.161646 H        1 UNL1     0.0524
     122 H         -0.43343   3.67241   -6.839833 H        1 UNL1     0.0524
     123 H         0.624288   3.512344   -5.415279 H        1 UNL1     0.0524
@<TRIPOS>BOND
     1     1     2    1
     2     1    42    1
     3     2     3    2
     4     3     4    1
     5     4     5    2
     6     5     7    1
     7     6    75    1
     8     6    76    1
     9     6    77    1
    10     7     9   am
    11     9    10    1
    12    10    11    2
    13    10    43    1
    14    11    14    1
    15    11    15    1
    16    12    13   ar
    17    12    27   ar
    18    12    43    1
    19    13    14    1
    20    13    30   ar
    21    14    17    2
    22    15    16    1
    23    16    17    1
    24    16    18    1
    25    16    22    1
    26    18    19    1
    27    19    20    1
    28    20    21    1
    29    21    22    1
    30    23    24    1
    31    23    88    1
    32    23    89    1
    33    24    25    1
    34    24    26    1
    35    24    90    1
    36    25    91    1
    37    25    92    1
    38    25    93    1
    39    26    94    1
    40    26    95    1
    41    26    96    1
    42    27    28   ar
    43    28    29   ar
    44    29    30   ar
    45    29    31    1
    46    30    33    1
    47    31    32    1
    48    32    33    1
    49    32    35    1
    50    34    97    1
    51    34    98    1
    52    34    99    1
    53    35    61    1
    54    36    37    1
    55    36    60    1
    56    37    38    1
    57    38    39    1
    58    39    40    1
    59    40    41    1
    60    41    42    1
    61    45   100    1
    62    47   101    1
    63    47   102    1
    64    47   103    1
    65    48   104    1
    66    49   105    1
    67    49   106    1
    68    49   107    1
    69    50   108    1
    70    51    59    1
    71    52   109    1
    72    52   110    1
    73    52   111    1
    74    53    54    1
    75    54    55    2
    76    54    56    1
    77    56   112    1
    78    56   113    1
    79    56   114    1
    80    57   115    1
    81    57   116    1
    82    57   117    1
    83    58   118    1
    84    58   119    1
    85    58   120    1
    86    59   121    1
    87    59   122    1
    88    59   123    1
    89    60    61    2
    90     1    47    1
    91     1    62    1
    92     2    63    1
    93     3    64    1
    94     4    65    1
    95     5     6    1
    96     7     8    2
    97     9    78    1
    98    15    79    1
    99    18    80    1
   100    18    81    1
   101    19    82    1
   102    19    83    1
   103    20    23    1
   104    21    84    1
   105    21    85    1
   106    22    86    1
   107    22    87    1
   108    27    45    1
   109    28    34    1
   110    32    58    1
   111    33    46    2
   112    36    51    1
   113    36    66    1
   114    37    52    1
   115    37    67    1
   116    38    53    1
   117    38    68    1
   118    42    48    1
   119    42    72    1
   120    43    44    2
   121    60    73    1
   122    61    74    1
   123    39    69    1
   124    39    57    1
   125    40    70    1
   126    40    50    1
   127    41    71    1
   128    41    49    1
