@<TRIPOS>MOLECULE
*****
 123 128 0 0 0
SMALL
GASTEIGER

@<TRIPOS>ATOM
     1 C         1.212305   0.929624   -4.709551 C.3        1 UNL1     0.0009
     2 C         1.743319   -0.09344   -6.161585 C.2        1 UNL1     -0.0787
     3 C         2.741287   -0.453312   -7.146774 C.2        1 UNL1     -0.0649
     4 C         2.674476   -1.70285   -8.28719 C.2        1 UNL1     -0.0542
     5 C         3.436758   -2.535513   -9.143154 C.2        1 UNL1     0.0115
     6 C         4.85227   -2.762461   -9.741605 C.3        1 UNL1     -0.0348
     7 C         2.772719   -3.882735   -9.709754 C.2        1 UNL1     0.2441
     8 O         2.33784   -3.982215   -10.848837 O.2        1 UNL1     -0.2702
     9 N         2.959508   -5.016938   -8.900529 N.am        1 UNL1     -0.2772
     10 C         1.955415   -5.109484   -7.964284 C.2        1 UNL1     0.1049
     11 C         2.110364   -4.384849   -6.871069 C.2        1 UNL1     0.0801
     12 C         -0.531806   -5.032827   -7.708957 C.ar        1 UNL1     0.0753
     13 C         -0.31632   -4.083256   -6.659915 C.ar        1 UNL1     0.0305
     14 C         1.017468   -3.828983   -6.120093 C.2        1 UNL1     0.0924
     15 N         3.189919   -3.724543   -6.418207 N.pl3        1 UNL1     -0.3170
     16 C         2.88633   -3.239085   -5.0982 C.3        1 UNL1     0.1275
     17 N         1.386949   -3.067141   -5.094419 N.2        1 UNL1     -0.2557
     18 C         3.185214   -4.371291   -4.120202 C.3        1 UNL1     0.0016
     19 C         4.628187   -4.810591   -4.311076 C.3        1 UNL1     0.0026
     20 N         5.500188   -3.668683   -4.072983 N.3        1 UNL1     -0.3018
     21 C         5.24769   -2.505169   -4.925538 C.3        1 UNL1     0.0026
     22 C         3.79413   -2.077984   -4.714415 C.3        1 UNL1     0.0016
     23 C         6.893703   -4.042397   -3.934786 C.3        1 UNL1     0.0012
     24 C         7.575138   -4.09928   -5.311073 C.3        1 UNL1     -0.0339
     25 C         9.107076   -4.079541   -5.181336 C.3        1 UNL1     -0.0615
     26 C         7.094912   -5.317852   -6.079997 C.3        1 UNL1     -0.0615
     27 C         -1.817363   -5.358273   -8.13504 C.ar        1 UNL1     0.1347
     28 C         -2.961704   -4.831438   -7.56322 C.ar        1 UNL1     0.0342
     29 C         -2.723994   -3.862266   -6.56554 C.ar        1 UNL1     0.1435
     30 C         -1.441124   -3.499524   -6.153373 C.ar        1 UNL1     0.0774
     31 O         -3.733993   -3.337674   -5.837727 O.3        1 UNL1     -0.4436
     32 C         -3.097205   -2.798462   -4.669556 C.3        1 UNL1     0.3143
     33 C         -1.659453   -2.552365   -5.080064 C.2        1 UNL1     0.2504
     34 C         -4.365914   -5.316684   -7.793065 C.3        1 UNL1     -0.0327
     35 O         -3.684579   -1.515922   -4.417892 O.2        1 UNL1     -0.4528
     36 C         -3.503033   -1.007366   -0.660699 C.3        1 UNL1     0.0854
     37 C         -2.242322   -1.02178   0.286889 C.3        1 UNL1     0.0236
     38 C         -2.055561   0.294741   1.183346 C.3        1 UNL1     0.1131
     39 C         -2.097912   1.721451   0.501455 C.3        1 UNL1     0.0200
     40 C         -1.299355   1.994204   -0.937417 C.3        1 UNL1     0.0661
     41 C         0.314464   1.591077   -1.270113 C.3        1 UNL1     0.0091
     42 C         1.114687   1.083342   -2.840861 C.3        1 UNL1     0.0661
     43 C         0.655421   -5.726373   -8.2673 C.2        1 UNL1     0.2131
     44 O         0.598768   -6.79338   -8.851272 O.2        1 UNL1     -0.2851
     45 O         -1.938183   -6.257504   -9.192501 O.3        1 UNL1     -0.5056
     46 O         -0.877309   -1.741722   -4.63626 O.2        1 UNL1     -0.2836
     47 C         0.879002   2.376616   -5.162436 C.3        1 UNL1     -0.0566
     48 O         2.257952   2.016107   -2.692495 O.3        1 UNL1     -0.3909
     49 C         0.813779   0.650267   -0.196308 C.3        1 UNL1     -0.0577
     50 O         -2.118934   1.654414   -2.03767 O.3        1 UNL1     -0.3910
     51 O         -4.204438   0.213307   -0.734318 O.3        1 UNL1     -0.3753
     52 C         -1.0298   -1.759604   -0.369125 C.3        1 UNL1     -0.0564
     53 O         -1.078403   0.121109   2.309109 O.3        1 UNL1     -0.4608
     54 C         -1.182426   0.697058   3.548218 C.2        1 UNL1     0.3042
     55 O         -1.489581   1.859827   3.807954 O.2        1 UNL1     -0.2512
     56 C         -0.936625   -0.26071   4.679136 C.3        1 UNL1     0.0332
     57 C         -3.590081   2.279602   0.643134 C.3        1 UNL1     -0.0567
     58 C         -3.126548   -3.915447   -3.600437 C.3        1 UNL1     0.0210
     59 C         -5.379332   0.279114   0.072628 C.3        1 UNL1     0.0372
     60 C         -3.24185   -1.437495   -2.061389 C.2        1 UNL1     -0.0208
     61 C         -3.641854   -0.906489   -3.217578 C.2        1 UNL1     0.0882
     62 H         0.263308   0.380196   -4.693877 H        1 UNL1     0.0365
     63 H         0.825853   -0.649551   -6.36522 H        1 UNL1     0.0576
     64 H         3.745295   -0.02352   -7.127927 H        1 UNL1     0.0615
     65 H         1.623377   -2.003936   -8.282603 H        1 UNL1     0.0622
     66 H         -4.177541   -1.76314   -0.234212 H        1 UNL1     0.0645
     67 H         -2.491814   -1.775783   1.053566 H        1 UNL1     0.0362
     68 H         -2.971106   0.234665   1.791367 H        1 UNL1     0.0741
     69 H         -1.638187   2.439338   1.167562 H        1 UNL1     0.0359
     70 H         -1.280247   3.100863   -0.938091 H        1 UNL1     0.0600
     71 H         0.813617   2.536319   -0.979733 H        1 UNL1     0.0348
     72 H         0.174402   1.577496   -3.125452 H        1 UNL1     0.0602
     73 H         -2.747762   -2.377193   -2.051799 H        1 UNL1     0.0628
     74 H         -4.101739   0.077207   -3.31801 H        1 UNL1     0.1022
     75 H         5.526365   -1.908905   -9.488478 H        1 UNL1     0.0279
     76 H         5.406853   -3.618769   -9.364453 H        1 UNL1     0.0279
     77 H         4.860056   -2.726258   -10.840845 H        1 UNL1     0.0279
     78 H         3.840845   -4.936914   -8.39762 H        1 UNL1     0.1553
     79 H         4.126417   -3.909945   -6.727288 H        1 UNL1     0.1484
     80 H         3.006262   -4.017148   -3.09779 H        1 UNL1     0.0317
     81 H         2.508269   -5.217004   -4.281967 H        1 UNL1     0.0317
     82 H         4.795664   -5.234583   -5.312123 H        1 UNL1     0.0428
     83 H         4.819515   -5.619578   -3.605397 H        1 UNL1     0.0428
     84 H         5.861562   -1.634958   -4.67314 H        1 UNL1     0.0428
     85 H         5.492366   -2.708264   -5.977299 H        1 UNL1     0.0428
     86 H         3.684214   -1.151778   -5.247376 H        1 UNL1     0.0317
     87 H         3.636716   -1.788946   -3.668101 H        1 UNL1     0.0317
     88 H         7.394252   -3.276238   -3.328366 H        1 UNL1     0.0429
     89 H         6.999896   -4.995393   -3.400654 H        1 UNL1     0.0429
     90 H         7.263551   -3.230073   -5.902348 H        1 UNL1     0.0308
     91 H         9.418269   -4.135091   -4.133875 H        1 UNL1     0.0233
     92 H         9.552162   -4.911377   -5.732295 H        1 UNL1     0.0233
     93 H         9.549633   -3.16604   -5.596662 H        1 UNL1     0.0233
     94 H         7.930488   -6.001812   -6.263973 H        1 UNL1     0.0233
     95 H         6.341831   -5.854915   -5.496563 H        1 UNL1     0.0233
     96 H         6.660388   -5.036172   -7.043228 H        1 UNL1     0.0233
     97 H         -4.474445   -5.809513   -8.754611 H        1 UNL1     0.0280
     98 H         -4.677543   -6.053237   -7.040978 H        1 UNL1     0.0280
     99 H         -5.061389   -4.46201   -7.76236 H        1 UNL1     0.0280
     100 H         -1.963343   -7.162564   -8.935879 H        1 UNL1     0.2922
     101 H         1.801469   2.919009   -5.368645 H        1 UNL1     0.0236
     102 H         0.239791   2.909363   -4.459177 H        1 UNL1     0.0236
     103 H         0.324568   2.394895   -6.115569 H        1 UNL1     0.0236
     104 H         1.98893   2.875232   -3.072628 H        1 UNL1     0.2098
     105 H         1.663091   0.040105   -0.493262 H        1 UNL1     0.0234
     106 H         1.00531   1.120583   0.76808 H        1 UNL1     0.0234
     107 H         0.0   0.0   0.0 H        1 UNL1     0.0234
     108 H         -1.531969   1.523614   -2.807172 H        1 UNL1     0.2098
     109 H         -0.295245   -2.096269   0.375723 H        1 UNL1     0.0234
     110 H         -1.329293   -2.605779   -0.996847 H        1 UNL1     0.0234
     111 H         -0.478366   -1.101959   -1.054231 H        1 UNL1     0.0234
     112 H         -1.860442   -0.794334   4.92235 H        1 UNL1     0.0342
     113 H         -0.129657   -0.957541   4.457609 H        1 UNL1     0.0342
     114 H         -0.640927   0.320873   5.563154 H        1 UNL1     0.0342
     115 H         -3.696106   3.279108   0.199362 H        1 UNL1     0.0234
     116 H         -4.348958   1.637612   0.191466 H        1 UNL1     0.0234
     117 H         -3.888589   2.477187   1.687067 H        1 UNL1     0.0234
     118 H         -2.270487   -4.605776   -3.698472 H        1 UNL1     0.0309
     119 H         -3.159977   -3.529481   -2.576662 H        1 UNL1     0.0309
     120 H         -3.995532   -4.574322   -3.70463 H        1 UNL1     0.0309
     121 H         -6.22854   0.021911   -0.559866 H        1 UNL1     0.0524
     122 H         -5.355461   -0.442661   0.905999 H        1 UNL1     0.0524
     123 H         -5.502326   1.280041   0.476498 H        1 UNL1     0.0524
@<TRIPOS>BOND
     1     1     2    1
     2     1    42    1
     3     2     3    2
     4     3     4    1
     5     4     5    2
     6     5     7    1
     7     6    75    1
     8     6    76    1
     9     6    77    1
    10     7     9   am
    11     9    10    1
    12    10    11    2
    13    10    43    1
    14    11    14    1
    15    11    15    1
    16    12    13   ar
    17    12    27   ar
    18    12    43    1
    19    13    14    1
    20    13    30   ar
    21    14    17    2
    22    15    16    1
    23    16    17    1
    24    16    18    1
    25    16    22    1
    26    18    19    1
    27    19    20    1
    28    20    21    1
    29    21    22    1
    30    23    24    1
    31    23    88    1
    32    23    89    1
    33    24    25    1
    34    24    26    1
    35    24    90    1
    36    25    91    1
    37    25    92    1
    38    25    93    1
    39    26    94    1
    40    26    95    1
    41    26    96    1
    42    27    28   ar
    43    28    29   ar
    44    29    30   ar
    45    29    31    1
    46    30    33    1
    47    31    32    1
    48    32    33    1
    49    32    35    1
    50    34    97    1
    51    34    98    1
    52    34    99    1
    53    35    61    1
    54    36    37    1
    55    36    60    1
    56    37    38    1
    57    38    39    1
    58    39    40    1
    59    40    41    1
    60    41    42    1
    61    45   100    1
    62    47   101    1
    63    47   102    1
    64    47   103    1
    65    48   104    1
    66    49   105    1
    67    49   106    1
    68    49   107    1
    69    50   108    1
    70    51    59    1
    71    52   109    1
    72    52   110    1
    73    52   111    1
    74    53    54    1
    75    54    55    2
    76    54    56    1
    77    56   112    1
    78    56   113    1
    79    56   114    1
    80    57   115    1
    81    57   116    1
    82    57   117    1
    83    58   118    1
    84    58   119    1
    85    58   120    1
    86    59   121    1
    87    59   122    1
    88    59   123    1
    89    60    61    2
    90     1    47    1
    91     1    62    1
    92     2    63    1
    93     3    64    1
    94     4    65    1
    95     5     6    1
    96     7     8    2
    97     9    78    1
    98    15    79    1
    99    18    80    1
   100    18    81    1
   101    19    82    1
   102    19    83    1
   103    20    23    1
   104    21    84    1
   105    21    85    1
   106    22    86    1
   107    22    87    1
   108    27    45    1
   109    28    34    1
   110    32    58    1
   111    33    46    2
   112    36    51    1
   113    36    66    1
   114    37    52    1
   115    37    67    1
   116    38    53    1
   117    38    68    1
   118    42    48    1
   119    42    72    1
   120    43    44    2
   121    60    73    1
   122    61    74    1
   123    39    69    1
   124    39    57    1
   125    40    70    1
   126    40    50    1
   127    41    71    1
   128    41    49    1
