@<TRIPOS>MOLECULE
*****
 123 128 0 0 0
SMALL
GASTEIGER

@<TRIPOS>ATOM
     1 C         -0.542066   1.096584   -5.112662 C.3        1 UNL1     0.0009
     2 C         -1.838485   1.630743   -6.325514 C.2        1 UNL1     -0.0787
     3 C         -2.664744   1.357653   -7.482564 C.2        1 UNL1     -0.0649
     4 C         -3.899022   2.318746   -8.130034 C.2        1 UNL1     -0.0542
     5 C         -5.050142   2.329371   -8.955798 C.2        1 UNL1     0.0115
     6 C         -5.879159   1.49038   -9.966811 C.3        1 UNL1     -0.0348
     7 C         -6.077334   3.557647   -8.840892 C.2        1 UNL1     0.2441
     8 O         -6.116493   4.470656   -9.654162 O.2        1 UNL1     -0.2702
     9 N         -7.100995   3.382701   -7.893441 N.am        1 UNL1     -0.2772
     10 C         -6.690404   3.822778   -6.656077 C.2        1 UNL1     0.1049
     11 C         -5.974982   2.97154   -5.943486 C.2        1 UNL1     0.0801
     12 C         -5.611635   5.759302   -5.496998 C.ar        1 UNL1     0.0753
     13 C         -4.719463   4.808269   -4.906935 C.ar        1 UNL1     0.0305
     14 C         -4.957043   3.370187   -5.009538 C.2        1 UNL1     0.0924
     15 N         -5.750769   1.6601   -6.134228 N.pl3        1 UNL1     -0.3170
     16 C         -5.048726   1.162092   -4.981241 C.3        1 UNL1     0.1275
     17 N         -4.299471   2.359148   -4.448891 N.2        1 UNL1     -0.2557
     18 C         -6.097031   0.816008   -3.928158 C.3        1 UNL1     0.0016
     19 C         -7.087752   -0.166194   -4.532591 C.3        1 UNL1     0.0026
     20 N         -6.364671   -1.355013   -4.962581 N.3        1 UNL1     -0.3018
     21 C         -5.292884   -1.114496   -5.930977 C.3        1 UNL1     0.0026
     22 C         -4.306906   -0.128949   -5.301343 C.3        1 UNL1     0.0016
     23 C         -7.241328   -2.466159   -5.274784 C.3        1 UNL1     0.0012
     24 C         -7.879203   -3.025501   -3.993375 C.3        1 UNL1     -0.0339
     25 C         -8.082982   -4.546765   -4.08441 C.3        1 UNL1     -0.0615
     26 C         -7.040806   -2.645111   -2.785412 C.3        1 UNL1     -0.0615
     27 C         -5.446069   7.127225   -5.2933 C.ar        1 UNL1     0.1347
     28 C         -4.453199   7.659447   -4.490182 C.ar        1 UNL1     0.0342
     29 C         -3.557325   6.707226   -3.959287 C.ar        1 UNL1     0.1435
     30 C         -3.689255   5.336384   -4.184246 C.ar        1 UNL1     0.0774
     31 O         -2.603098   7.05687   -3.069227 O.3        1 UNL1     -0.4436
     32 C         -2.239232   5.826379   -2.425513 C.3        1 UNL1     0.3143
     33 C         -2.625469   4.737222   -3.405702 C.2        1 UNL1     0.2504
     34 C         -4.365963   9.086275   -4.024723 C.3        1 UNL1     -0.0327
     35 O         -0.810237   5.806412   -2.321455 O.2        1 UNL1     -0.4528
     36 C         -0.021788   3.785268   0.793254 C.3        1 UNL1     0.0854
     37 C         -0.432781   2.305204   1.151054 C.3        1 UNL1     0.0236
     38 C         0.789571   1.33451   1.518959 C.3        1 UNL1     0.1131
     39 C         2.036605   1.240589   0.550272 C.3        1 UNL1     0.0200
     40 C         1.818663   1.145642   -1.100765 C.3        1 UNL1     0.0661
     41 C         0.778564   0.074292   -1.905759 C.3        1 UNL1     0.0091
     42 C         -0.166295   0.278835   -3.464863 C.3        1 UNL1     0.0661
     43 C         -6.772173   5.23656   -6.259986 C.2        1 UNL1     0.2131
     44 O         -7.785222   5.879212   -6.468475 O.2        1 UNL1     -0.2851
     45 O         -6.330553   7.987532   -5.940602 O.3        1 UNL1     -0.5056
     46 O         -2.147585   3.631842   -3.530661 O.2        1 UNL1     -0.2836
     47 C         0.862475   1.134929   -5.772795 C.3        1 UNL1     -0.0566
     48 O         0.249353   -1.031042   -4.022157 O.3        1 UNL1     -0.3909
     49 C         -0.164079   -0.541846   -0.896159 C.3        1 UNL1     -0.0577
     50 O         1.716132   2.436264   -1.667779 O.3        1 UNL1     -0.3910
     51 O         1.361477   4.027867   0.67014 O.3        1 UNL1     -0.3753
     52 C         -1.654012   1.819524   0.303906 C.3        1 UNL1     -0.0564
     53 O         0.363975   0.05908   2.185646 O.3        1 UNL1     -0.4608
     54 C         0.932855   -1.171349   1.984774 C.2        1 UNL1     0.3042
     55 O         0.491785   -2.095803   1.303099 O.2        1 UNL1     -0.2512
     56 C         2.269653   -1.331857   2.65105 C.3        1 UNL1     0.0332
     57 C         3.150041   2.249626   1.09825 C.3        1 UNL1     -0.0567
     58 C         -3.134465   5.708097   -1.170086 C.3        1 UNL1     0.0210
     59 C         1.934166   4.785841   1.734738 C.3        1 UNL1     0.0372
     60 C         -0.665094   4.33839   -0.429601 C.2        1 UNL1     -0.0208
     61 C         -0.144371   5.035586   -1.440299 C.2        1 UNL1     0.0882
     62 H         -0.667242   2.051238   -4.587612 H        1 UNL1     0.0365
     63 H         -2.005322   2.661104   -6.004592 H        1 UNL1     0.0576
     64 H         -2.66684   0.378241   -7.966148 H        1 UNL1     0.0615
     65 H         -3.758395   3.287089   -7.642162 H        1 UNL1     0.0622
     66 H         -0.400367   4.387141   1.63139 H        1 UNL1     0.0645
     67 H         -0.941679   2.396616   2.126362 H        1 UNL1     0.0362
     68 H         1.160251   1.840262   2.423577 H        1 UNL1     0.0741
     69 H         2.58054   0.331672   0.7703 H        1 UNL1     0.0359
     70 H         2.821111   0.788611   -1.40521 H        1 UNL1     0.0600
     71 H         1.474848   -0.766406   -2.09384 H        1 UNL1     0.0348
     72 H         0.625937   1.041162   -3.488147 H        1 UNL1     0.0602
     73 H         -1.716813   4.211389   -0.358845 H        1 UNL1     0.0628
     74 H         0.924429   5.161869   -1.616247 H        1 UNL1     0.1022
     75 H         -5.211111   1.0266   -10.732091 H        1 UNL1     0.0279
     76 H         -6.407529   0.629082   -9.564246 H        1 UNL1     0.0279
     77 H         -6.533887   2.109663   -10.597304 H        1 UNL1     0.0279
     78 H         -7.322888   2.392945   -7.808445 H        1 UNL1     0.1553
     79 H         -6.322267   1.076311   -6.716905 H        1 UNL1     0.1484
     80 H         -5.595406   0.390107   -3.050805 H        1 UNL1     0.0317
     81 H         -6.61873   1.715811   -3.584886 H        1 UNL1     0.0317
     82 H         -7.646347   0.281096   -5.367944 H        1 UNL1     0.0428
     83 H         -7.827289   -0.398053   -3.765533 H        1 UNL1     0.0428
     84 H         -4.714373   -2.010512   -6.176522 H        1 UNL1     0.0428
     85 H         -5.685684   -0.776684   -6.89995 H        1 UNL1     0.0428
     86 H         -3.474319   -0.079953   -5.978385 H        1 UNL1     0.0317
     87 H         -3.870687   -0.563644   -4.393681 H        1 UNL1     0.0317
     88 H         -8.040588   -2.0968   -5.930567 H        1 UNL1     0.0429
     89 H         -6.708962   -3.251071   -5.827298 H        1 UNL1     0.0429
     90 H         -8.855864   -2.550837   -3.841583 H        1 UNL1     0.0308
     91 H         -7.189295   -5.045294   -4.471571 H        1 UNL1     0.0233
     92 H         -8.329718   -4.962764   -3.10478 H        1 UNL1     0.0233
     93 H         -8.91186   -4.818035   -4.749397 H        1 UNL1     0.0233
     94 H         -7.24291   -3.329802   -1.954636 H        1 UNL1     0.0233
     95 H         -5.977552   -2.717411   -3.030822 H        1 UNL1     0.0233
     96 H         -7.25804   -1.625868   -2.453869 H        1 UNL1     0.0233
     97 H         -4.356743   9.161638   -2.941456 H        1 UNL1     0.0280
     98 H         -3.446438   9.578078   -4.368029 H        1 UNL1     0.0280
     99 H         -5.233363   9.651573   -4.403075 H        1 UNL1     0.0280
     100 H         -6.441948   7.815973   -6.859177 H        1 UNL1     0.2922
     101 H         1.413062   2.004869   -5.415423 H        1 UNL1     0.0236
     102 H         0.82602   1.092628   -6.86085 H        1 UNL1     0.0236
     103 H         1.482055   0.271354   -5.478598 H        1 UNL1     0.0236
     104 H         0.743785   -1.504716   -3.32492 H        1 UNL1     0.2098
     105 H         -1.216949   -0.451732   -1.151417 H        1 UNL1     0.0234
     106 H         0.071409   -1.569986   -0.621568 H        1 UNL1     0.0234
     107 H         0.0   0.0   0.0 H        1 UNL1     0.0234
     108 H         2.622521   2.734682   -1.875563 H        1 UNL1     0.2098
     109 H         -2.548609   2.43504   0.472867 H        1 UNL1     0.0234
     110 H         -1.440817   1.769783   -0.769321 H        1 UNL1     0.0234
     111 H         -1.945454   0.793509   0.565247 H        1 UNL1     0.0234
     112 H         2.676533   -2.324322   2.4347 H        1 UNL1     0.0342
     113 H         2.969452   -0.550443   2.358619 H        1 UNL1     0.0342
     114 H         2.122699   -1.2576   3.737353 H        1 UNL1     0.0342
     115 H         4.16634   1.87041   0.923551 H        1 UNL1     0.0234
     116 H         3.094008   3.25032   0.665214 H        1 UNL1     0.0234
     117 H         3.147235   2.353352   2.196965 H        1 UNL1     0.0234
     118 H         -2.557932   5.831614   -0.23662 H        1 UNL1     0.0309
     119 H         -3.970733   6.414395   -1.170653 H        1 UNL1     0.0309
     120 H         -3.578559   4.71242   -1.062777 H        1 UNL1     0.0309
     121 H         2.817891   5.288835   1.343098 H        1 UNL1     0.0524
     122 H         1.248653   5.563623   2.110457 H        1 UNL1     0.0524
     123 H         2.208996   4.131059   2.556823 H        1 UNL1     0.0524
@<TRIPOS>BOND
     1     1     2    1
     2     1    42    1
     3     2     3    2
     4     3     4    1
     5     4     5    2
     6     5     7    1
     7     6    75    1
     8     6    76    1
     9     6    77    1
    10     7     9   am
    11     9    10    1
    12    10    11    2
    13    10    43    1
    14    11    14    1
    15    11    15    1
    16    12    13   ar
    17    12    27   ar
    18    12    43    1
    19    13    14    1
    20    13    30   ar
    21    14    17    2
    22    15    16    1
    23    16    17    1
    24    16    18    1
    25    16    22    1
    26    18    19    1
    27    19    20    1
    28    20    21    1
    29    21    22    1
    30    23    24    1
    31    23    88    1
    32    23    89    1
    33    24    25    1
    34    24    26    1
    35    24    90    1
    36    25    91    1
    37    25    92    1
    38    25    93    1
    39    26    94    1
    40    26    95    1
    41    26    96    1
    42    27    28   ar
    43    28    29   ar
    44    29    30   ar
    45    29    31    1
    46    30    33    1
    47    31    32    1
    48    32    33    1
    49    32    35    1
    50    34    97    1
    51    34    98    1
    52    34    99    1
    53    35    61    1
    54    36    37    1
    55    36    60    1
    56    37    38    1
    57    38    39    1
    58    39    40    1
    59    40    41    1
    60    41    42    1
    61    45   100    1
    62    47   101    1
    63    47   102    1
    64    47   103    1
    65    48   104    1
    66    49   105    1
    67    49   106    1
    68    49   107    1
    69    50   108    1
    70    51    59    1
    71    52   109    1
    72    52   110    1
    73    52   111    1
    74    53    54    1
    75    54    55    2
    76    54    56    1
    77    56   112    1
    78    56   113    1
    79    56   114    1
    80    57   115    1
    81    57   116    1
    82    57   117    1
    83    58   118    1
    84    58   119    1
    85    58   120    1
    86    59   121    1
    87    59   122    1
    88    59   123    1
    89    60    61    2
    90     1    47    1
    91     1    62    1
    92     2    63    1
    93     3    64    1
    94     4    65    1
    95     5     6    1
    96     7     8    2
    97     9    78    1
    98    15    79    1
    99    18    80    1
   100    18    81    1
   101    19    82    1
   102    19    83    1
   103    20    23    1
   104    21    84    1
   105    21    85    1
   106    22    86    1
   107    22    87    1
   108    27    45    1
   109    28    34    1
   110    32    58    1
   111    33    46    2
   112    36    51    1
   113    36    66    1
   114    37    52    1
   115    37    67    1
   116    38    53    1
   117    38    68    1
   118    42    48    1
   119    42    72    1
   120    43    44    2
   121    60    73    1
   122    61    74    1
   123    39    69    1
   124    39    57    1
   125    40    70    1
   126    40    50    1
   127    41    71    1
   128    41    49    1
