@<TRIPOS>MOLECULE
*****
 123 128 0 0 0
SMALL
GASTEIGER

@<TRIPOS>ATOM
     1 C         3.994637   0.991205   -0.816138 C.3        1 UNL1     0.0009
     2 C         4.630511   2.063364   -2.188426 C.2        1 UNL1     -0.0787
     3 C         5.2704   2.203207   -3.479563 C.2        1 UNL1     -0.0649
     4 C         5.502967   3.619383   -4.377736 C.2        1 UNL1     -0.0542
     5 C         5.761979   4.147437   -5.666592 C.2        1 UNL1     0.0115
     6 C         6.1709   3.774974   -7.118273 C.3        1 UNL1     -0.0348
     7 C         5.447785   5.696124   -5.94915 C.2        1 UNL1     0.2441
     8 O         6.317512   6.555635   -5.985778 O.2        1 UNL1     -0.2702
     9 N         4.14559   5.958519   -6.409135 N.am        1 UNL1     -0.2772
     10 C         3.290329   6.147137   -5.347875 C.2        1 UNL1     0.1049
     11 C         2.802915   5.052981   -4.791571 C.2        1 UNL1     0.0801
     12 C         3.046447   7.396861   -3.194727 C.ar        1 UNL1     0.0753
     13 C         2.724377   6.139253   -2.591984 C.ar        1 UNL1     0.0305
     14 C         2.463945   4.948742   -3.398155 C.2        1 UNL1     0.0924
     15 N         2.835704   3.778824   -5.218158 N.pl3        1 UNL1     -0.3170
     16 C         2.012046   2.998014   -4.33375 C.3        1 UNL1     0.1275
     17 N         2.059852   3.73934   -3.020025 N.2        1 UNL1     -0.2557
     18 C         0.575257   3.114288   -4.833571 C.3        1 UNL1     0.0016
     19 C         0.528982   2.672861   -6.287734 C.3        1 UNL1     0.0026
     20 N         1.004507   1.299069   -6.374908 N.3        1 UNL1     -0.3018
     21 C         2.356965   1.075436   -5.859918 C.3        1 UNL1     0.0026
     22 C         2.379375   1.521317   -4.396845 C.3        1 UNL1     0.0016
     23 C         0.722392   0.68494   -7.657055 C.3        1 UNL1     0.0012
     24 C         -0.784641   0.425795   -7.810191 C.3        1 UNL1     -0.0339
     25 C         -1.308072   0.934475   -9.163454 C.3        1 UNL1     -0.0615
     26 C         -1.081584   -1.050897   -7.615291 C.3        1 UNL1     -0.0615
     27 C         3.174371   8.55286   -2.428293 C.ar        1 UNL1     0.1347
     28 C         2.965154   8.58303   -1.061045 C.ar        1 UNL1     0.0342
     29 C         2.697195   7.324191   -0.482523 C.ar        1 UNL1     0.1435
     30 C         2.601729   6.151519   -1.232822 C.ar        1 UNL1     0.0774
     31 O         2.362215   7.204446   0.820725 O.3        1 UNL1     -0.4436
     32 C         1.723101   5.922417   0.914579 C.3        1 UNL1     0.3143
     33 C         2.24492   5.132091   -0.268342 C.2        1 UNL1     0.2504
     34 C         2.837338   9.819632   -0.215718 C.3        1 UNL1     -0.0327
     35 O         2.221907   5.283258   2.096069 O.2        1 UNL1     -0.4528
     36 C         -0.58352   3.044673   3.331549 C.3        1 UNL1     0.0854
     37 C         -1.334222   1.880174   2.577952 C.3        1 UNL1     0.0236
     38 C         -1.324083   0.467329   3.336577 C.3        1 UNL1     0.1131
     39 C         0.04278   -0.133526   3.859001 C.3        1 UNL1     0.0200
     40 C         1.407975   -0.084454   2.901779 C.3        1 UNL1     0.0661
     41 C         1.504344   -0.579944   1.282269 C.3        1 UNL1     0.0091
     42 C         2.537488   0.05145   -0.095903 C.3        1 UNL1     0.0661
     43 C         3.151706   7.44684   -4.674147 C.2        1 UNL1     0.2131
     44 O         3.028828   8.469585   -5.323478 O.2        1 UNL1     -0.2851
     45 O         3.534734   9.726783   -3.086686 O.3        1 UNL1     -0.5056
     46 O         2.36093   3.932193   -0.38077 O.2        1 UNL1     -0.2836
     47 C         5.175148   0.433821   0.02392 C.3        1 UNL1     -0.0566
     48 O         2.97723   -1.295231   -0.534305 O.3        1 UNL1     -0.3909
     49 C         0.102835   -0.751699   0.740266 C.3        1 UNL1     -0.0577
     50 O         2.098092   1.136754   3.075309 O.3        1 UNL1     -0.3910
     51 O         0.145064   2.667454   4.47798 O.3        1 UNL1     -0.3753
     52 C         -1.172651   1.991878   1.026705 C.3        1 UNL1     -0.0564
     53 O         -2.320382   -0.513988   2.791848 O.3        1 UNL1     -0.4608
     54 C         -2.120762   -1.864109   2.668341 C.2        1 UNL1     0.3042
     55 O         -1.859067   -2.489565   1.641618 O.2        1 UNL1     -0.2512
     56 C         -2.186558   -2.603715   3.974238 C.3        1 UNL1     0.0332
     57 C         0.19524   0.280334   5.396417 C.3        1 UNL1     -0.0567
     58 C         0.209657   6.172761   0.718758 C.3        1 UNL1     0.0210
     59 C         -0.432659   3.076572   5.71682 C.3        1 UNL1     0.0372
     60 C         0.336617   3.851424   2.484399 C.2        1 UNL1     -0.0208
     61 C         1.577648   4.278903   2.720721 C.2        1 UNL1     0.0882
     62 H         3.642133   1.892831   -0.300847 H        1 UNL1     0.0365
     63 H         4.456052   3.056225   -1.768592 H        1 UNL1     0.0576
     64 H         5.528556   1.333357   -4.087695 H        1 UNL1     0.0615
     65 H         5.296733   4.419181   -3.661306 H        1 UNL1     0.0622
     66 H         -1.382885   3.730469   3.645788 H        1 UNL1     0.0645
     67 H         -2.400021   2.159059   2.647634 H        1 UNL1     0.0362
     68 H         -1.887614   0.740524   4.24174 H        1 UNL1     0.0741
     69 H         -0.086852   -1.193401   4.032981 H        1 UNL1     0.0359
     70 H         2.034206   -0.83272   3.424265 H        1 UNL1     0.0600
     71 H         1.814181   -1.634342   1.420842 H        1 UNL1     0.0348
     72 H         3.022316   0.395989   0.829056 H        1 UNL1     0.0602
     73 H         -0.186849   4.190558   1.625202 H        1 UNL1     0.0628
     74 H         2.201929   3.934293   3.545799 H        1 UNL1     0.1022
     75 H         7.05013   3.086523   -7.113475 H        1 UNL1     0.0279
     76 H         5.440244   3.217769   -7.700282 H        1 UNL1     0.0279
     77 H         6.569553   4.631835   -7.680915 H        1 UNL1     0.0279
     78 H         3.803234   5.16063   -6.940401 H        1 UNL1     0.1553
     79 H         3.014711   3.514393   -6.169455 H        1 UNL1     0.1484
     80 H         -0.073327   2.491941   -4.205249 H        1 UNL1     0.0317
     81 H         0.210103   4.14258   -4.739087 H        1 UNL1     0.0317
     82 H         1.120141   3.338119   -6.934167 H        1 UNL1     0.0428
     83 H         -0.503993   2.765371   -6.624566 H        1 UNL1     0.0428
     84 H         2.659277   0.023578   -5.863365 H        1 UNL1     0.0428
     85 H         3.117096   1.573528   -6.477512 H        1 UNL1     0.0428
     86 H         3.338641   1.221548   -4.017455 H        1 UNL1     0.0317
     87 H         1.674969   0.918621   -3.810613 H        1 UNL1     0.0317
     88 H         1.039441   1.37978   -8.445708 H        1 UNL1     0.0429
     89 H         1.298839   -0.239337   -7.791943 H        1 UNL1     0.0429
     90 H         -1.322014   0.9476   -7.009465 H        1 UNL1     0.0308
     91 H         -0.533077   0.883892   -9.93412 H        1 UNL1     0.0233
     92 H         -2.173775   0.351601   -9.486603 H        1 UNL1     0.0233
     93 H         -1.642312   1.977983   -9.116423 H        1 UNL1     0.0233
     94 H         -2.038418   -1.308574   -8.082095 H        1 UNL1     0.0233
     95 H         -0.302136   -1.654418   -8.088774 H        1 UNL1     0.0233
     96 H         -1.1336   -1.310829   -6.554301 H        1 UNL1     0.0233
     97 H         3.783973   10.341338   -0.11114 H        1 UNL1     0.0280
     98 H         2.13946   10.547424   -0.64993 H        1 UNL1     0.0280
     99 H         2.481854   9.543672   0.790549 H        1 UNL1     0.0280
     100 H         4.277495   9.642826   -3.65842 H        1 UNL1     0.2922
     101 H         5.238739   0.970655   0.970187 H        1 UNL1     0.0236
     102 H         6.123029   0.438031   -0.513188 H        1 UNL1     0.0236
     103 H         5.018841   -0.619753   0.309829 H        1 UNL1     0.0236
     104 H         3.741472   -1.176047   -1.131548 H        1 UNL1     0.2098
     105 H         -0.080778   -1.712693   0.266359 H        1 UNL1     0.0234
     106 H         -0.691384   -0.522989   1.450784 H        1 UNL1     0.0234
     107 H         -0.0   0.0   0.0 H        1 UNL1     0.0234
     108 H         1.796753   1.522732   3.920285 H        1 UNL1     0.2098
     109 H         -1.587643   2.929682   0.631715 H        1 UNL1     0.0234
     110 H         -0.135333   1.880944   0.692927 H        1 UNL1     0.0234
     111 H         -1.707645   1.187122   0.505077 H        1 UNL1     0.0234
     112 H         -1.998735   -3.668897   3.808537 H        1 UNL1     0.0342
     113 H         -1.496797   -2.195395   4.71136 H        1 UNL1     0.0342
     114 H         -3.203639   -2.499686   4.376592 H        1 UNL1     0.0342
     115 H         1.010858   -0.267716   5.887942 H        1 UNL1     0.0234
     116 H         0.374089   1.34585   5.553701 H        1 UNL1     0.0234
     117 H         -0.666273   -0.015965   6.019269 H        1 UNL1     0.0234
     118 H         -0.118733   7.116276   1.188807 H        1 UNL1     0.0309
     119 H         -0.093333   6.172229   -0.333097 H        1 UNL1     0.0309
     120 H         -0.40903   5.415701   1.212916 H        1 UNL1     0.0309
     121 H         0.373422   3.158329   6.445452 H        1 UNL1     0.0524
     122 H         -0.917792   4.064347   5.646233 H        1 UNL1     0.0524
     123 H         -1.165549   2.346739   6.048949 H        1 UNL1     0.0524
@<TRIPOS>BOND
     1     1     2    1
     2     1    42    1
     3     2     3    2
     4     3     4    1
     5     4     5    2
     6     5     7    1
     7     6    75    1
     8     6    76    1
     9     6    77    1
    10     7     9   am
    11     9    10    1
    12    10    11    2
    13    10    43    1
    14    11    14    1
    15    11    15    1
    16    12    13   ar
    17    12    27   ar
    18    12    43    1
    19    13    14    1
    20    13    30   ar
    21    14    17    2
    22    15    16    1
    23    16    17    1
    24    16    18    1
    25    16    22    1
    26    18    19    1
    27    19    20    1
    28    20    21    1
    29    21    22    1
    30    23    24    1
    31    23    88    1
    32    23    89    1
    33    24    25    1
    34    24    26    1
    35    24    90    1
    36    25    91    1
    37    25    92    1
    38    25    93    1
    39    26    94    1
    40    26    95    1
    41    26    96    1
    42    27    28   ar
    43    28    29   ar
    44    29    30   ar
    45    29    31    1
    46    30    33    1
    47    31    32    1
    48    32    33    1
    49    32    35    1
    50    34    97    1
    51    34    98    1
    52    34    99    1
    53    35    61    1
    54    36    37    1
    55    36    60    1
    56    37    38    1
    57    38    39    1
    58    39    40    1
    59    40    41    1
    60    41    42    1
    61    45   100    1
    62    47   101    1
    63    47   102    1
    64    47   103    1
    65    48   104    1
    66    49   105    1
    67    49   106    1
    68    49   107    1
    69    50   108    1
    70    51    59    1
    71    52   109    1
    72    52   110    1
    73    52   111    1
    74    53    54    1
    75    54    55    2
    76    54    56    1
    77    56   112    1
    78    56   113    1
    79    56   114    1
    80    57   115    1
    81    57   116    1
    82    57   117    1
    83    58   118    1
    84    58   119    1
    85    58   120    1
    86    59   121    1
    87    59   122    1
    88    59   123    1
    89    60    61    2
    90     1    47    1
    91     1    62    1
    92     2    63    1
    93     3    64    1
    94     4    65    1
    95     5     6    1
    96     7     8    2
    97     9    78    1
    98    15    79    1
    99    18    80    1
   100    18    81    1
   101    19    82    1
   102    19    83    1
   103    20    23    1
   104    21    84    1
   105    21    85    1
   106    22    86    1
   107    22    87    1
   108    27    45    1
   109    28    34    1
   110    32    58    1
   111    33    46    2
   112    36    51    1
   113    36    66    1
   114    37    52    1
   115    37    67    1
   116    38    53    1
   117    38    68    1
   118    42    48    1
   119    42    72    1
   120    43    44    2
   121    60    73    1
   122    61    74    1
   123    39    69    1
   124    39    57    1
   125    40    70    1
   126    40    50    1
   127    41    71    1
   128    41    49    1
