@<TRIPOS>MOLECULE
*****
 123 128 0 0 0
SMALL
GASTEIGER

@<TRIPOS>ATOM
     1 C         4.97725   2.222161   0.548397 C.3        1 UNL1     0.0009
     2 C         6.371393   3.093195   -0.308751 C.2        1 UNL1     -0.0787
     3 C         7.686327   3.066416   -0.913959 C.2        1 UNL1     -0.0649
     4 C         8.480288   4.317131   -1.733529 C.2        1 UNL1     -0.0542
     5 C         9.511395   4.631928   -2.652659 C.2        1 UNL1     0.0115
     6 C         10.731317   4.05166   -3.419733 C.3        1 UNL1     -0.0348
     7 C         9.497645   6.065751   -3.37443 C.2        1 UNL1     0.2441
     8 O         10.223921   6.989276   -3.033623 O.2        1 UNL1     -0.2702
     9 N         8.786592   6.108279   -4.586349 N.am        1 UNL1     -0.2772
     10 C         7.460549   6.393862   -4.355322 C.2        1 UNL1     0.1049
     11 C         6.695263   5.371766   -4.017861 C.2        1 UNL1     0.0801
     12 C         5.955667   7.97404   -3.132333 C.ar        1 UNL1     0.0753
     13 C         5.283861   6.817037   -2.623776 C.ar        1 UNL1     0.0305
     14 C         5.55039   5.482211   -3.155049 C.2        1 UNL1     0.0924
     15 N         6.947065   4.052254   -4.062711 N.pl3        1 UNL1     -0.3170
     16 C         5.724634   3.360768   -3.750037 C.3        1 UNL1     0.1275
     17 N         4.958202   4.324211   -2.877063 N.2        1 UNL1     -0.2557
     18 C         4.92944   3.239478   -5.046439 C.3        1 UNL1     0.0016
     19 C         5.795624   2.544852   -6.085096 C.3        1 UNL1     0.0026
     20 N         6.173439   1.233127   -5.577493 N.3        1 UNL1     -0.3018
     21 C         6.890084   1.243419   -4.300511 C.3        1 UNL1     0.0026
     22 C         5.999923   1.94155   -3.27089 C.3        1 UNL1     0.0016
     23 C         6.742509   0.375902   -6.598261 C.3        1 UNL1     0.0012
     24 C         5.661716   -0.058569   -7.600698 C.3        1 UNL1     -0.0339
     25 C         5.917412   -1.482502   -8.121364 C.3        1 UNL1     -0.0615
     26 C         4.285738   0.067382   -6.970143 C.3        1 UNL1     -0.0615
     27 C         5.61028   9.254529   -2.706688 C.ar        1 UNL1     0.1347
     28 C         4.58702   9.505132   -1.809923 C.ar        1 UNL1     0.0342
     29 C         3.972406   8.348148   -1.285707 C.ar        1 UNL1     0.1435
     30 C         4.332234   7.057508   -1.67557 C.ar        1 UNL1     0.0774
     31 O         2.886959   8.427835   -0.485419 O.3        1 UNL1     -0.4436
     32 C         2.289319   7.124382   -0.55404 C.3        1 UNL1     0.3143
     33 C         3.41338   6.194243   -0.963358 C.2        1 UNL1     0.2504
     34 C         3.996263   10.852433   -1.500269 C.3        1 UNL1     -0.0327
     35 O         1.909868   6.759058   0.778555 O.2        1 UNL1     -0.4528
     36 C         -1.119455   4.500796   0.415864 C.3        1 UNL1     0.0854
     37 C         -1.265401   3.150764   -0.386407 C.3        1 UNL1     0.0236
     38 C         -1.783052   1.903315   0.478262 C.3        1 UNL1     0.1131
     39 C         -1.072529   1.547144   1.845949 C.3        1 UNL1     0.0200
     40 C         0.591309   1.564664   1.963313 C.3        1 UNL1     0.0661
     41 C         1.670554   0.802347   0.899493 C.3        1 UNL1     0.0091
     42 C         3.361754   1.281393   0.374362 C.3        1 UNL1     0.0661
     43 C         6.971711   7.771406   -4.194808 C.2        1 UNL1     0.2131
     44 O         7.319991   8.644884   -4.96842 O.2        1 UNL1     -0.2851
     45 O         6.344072   10.323653   -3.216552 O.3        1 UNL1     -0.5056
     46 O         3.534128   5.011603   -0.733932 O.2        1 UNL1     -0.2836
     47 C         5.34445   1.945855   2.031232 C.3        1 UNL1     -0.0566
     48 O         3.934166   -0.069712   0.588781 O.3        1 UNL1     -0.3909
     49 C         0.919688   0.395235   -0.348688 C.3        1 UNL1     -0.0577
     50 O         1.057889   2.861187   2.278043 O.3        1 UNL1     -0.3910
     51 O         -1.289859   4.409087   1.812282 O.3        1 UNL1     -0.3753
     52 C         -0.15834   3.001557   -1.480529 C.3        1 UNL1     -0.0564
     53 O         -2.24502   0.744583   -0.356156 O.3        1 UNL1     -0.4608
     54 C         -2.34118   -0.554133   0.070481 C.2        1 UNL1     0.3042
     55 O         -1.56514   -1.478368   -0.169083 O.2        1 UNL1     -0.2512
     56 C         -3.51531   -0.80519   0.973311 C.3        1 UNL1     0.0332
     57 C         -1.90978   2.240372   3.019243 C.3        1 UNL1     -0.0567
     58 C         1.247494   7.180409   -1.695526 C.3        1 UNL1     0.0210
     59 C         -1.744308   5.606815   2.440604 C.3        1 UNL1     0.0372
     60 C         0.155169   5.234117   0.186225 C.2        1 UNL1     -0.0208
     61 C         0.98286   5.82099   1.051818 C.2        1 UNL1     0.0882
     62 H         4.409138   3.160145   0.536236 H        1 UNL1     0.0365
     63 H         6.004585   4.121715   -0.300519 H        1 UNL1     0.0576
     64 H         8.240871   2.133457   -1.037155 H        1 UNL1     0.0615
     65 H         7.895389   5.206014   -1.482008 H        1 UNL1     0.0622
     66 H         -1.914554   5.146306   0.016888 H        1 UNL1     0.0645
     67 H         -2.126525   3.327442   -1.054096 H        1 UNL1     0.0362
     68 H         -2.78162   2.273756   0.756034 H        1 UNL1     0.0741
     69 H         -1.318167   0.5273   2.110503 H        1 UNL1     0.0359
     70 H         0.722518   0.988695   2.899318 H        1 UNL1     0.0600
     71 H         1.788224   -0.173606   1.410009 H        1 UNL1     0.0348
     72 H         3.166075   1.832069   1.30591 H        1 UNL1     0.0602
     73 H         0.302271   5.360383   -0.857646 H        1 UNL1     0.0628
     74 H         0.935267   5.693595   2.133827 H        1 UNL1     0.1022
     75 H         11.520155   3.715123   -2.704533 H        1 UNL1     0.0279
     76 H         10.552015   3.155467   -4.009443 H        1 UNL1     0.0279
     77 H         11.273286   4.815257   -3.996699 H        1 UNL1     0.0279
     78 H         8.82939   5.19816   -5.040144 H        1 UNL1     0.1553
     79 H         7.67682   3.643006   -4.616703 H        1 UNL1     0.1484
     80 H         4.009529   2.675554   -4.850174 H        1 UNL1     0.0317
     81 H         4.621062   4.225557   -5.410036 H        1 UNL1     0.0317
     82 H         6.683855   3.141715   -6.339486 H        1 UNL1     0.0428
     83 H         5.210026   2.470371   -7.001926 H        1 UNL1     0.0428
     84 H         7.091544   0.244005   -3.902519 H        1 UNL1     0.0428
     85 H         7.885581   1.698989   -4.394097 H        1 UNL1     0.0428
     86 H         6.494603   1.813185   -2.326008 H        1 UNL1     0.0317
     87 H         5.063918   1.383708   -3.145178 H        1 UNL1     0.0317
     88 H         7.508826   0.948558   -7.136886 H        1 UNL1     0.0429
     89 H         7.24369   -0.49398   -6.154531 H        1 UNL1     0.0429
     90 H         5.664697   0.630781   -8.453341 H        1 UNL1     0.0308
     91 H         6.162634   -2.166908   -7.303712 H        1 UNL1     0.0233
     92 H         5.043093   -1.861135   -8.655978 H        1 UNL1     0.0233
     93 H         6.751855   -1.523804   -8.831881 H        1 UNL1     0.0233
     94 H         3.570563   -0.577447   -7.492213 H        1 UNL1     0.0233
     95 H         4.323744   -0.249081   -5.924022 H        1 UNL1     0.0233
     96 H         3.919201   1.096779   -7.014433 H        1 UNL1     0.0233
     97 H         2.930835   10.887503   -1.7073 H        1 UNL1     0.0280
     98 H         4.105457   11.118575   -0.440787 H        1 UNL1     0.0280
     99 H         4.492843   11.622732   -2.112758 H        1 UNL1     0.0280
     100 H         5.822791   11.032355   -3.550663 H        1 UNL1     0.2922
     101 H         4.436632   1.772071   2.608572 H        1 UNL1     0.0236
     102 H         5.966097   2.724925   2.471219 H        1 UNL1     0.0236
     103 H         5.93129   1.01933   2.146829 H        1 UNL1     0.0236
     104 H         3.523066   -0.439762   1.394405 H        1 UNL1     0.2098
     105 H         0.694068   1.216022   -1.024865 H        1 UNL1     0.0234
     106 H         1.364551   -0.434822   -0.897348 H        1 UNL1     0.0234
     107 H         0.0   -0.0   0.0 H        1 UNL1     0.0234
     108 H         2.020093   2.871659   2.111248 H        1 UNL1     0.2098
     109 H         0.854197   3.028904   -1.054227 H        1 UNL1     0.0234
     110 H         -0.27486   2.099259   -2.090466 H        1 UNL1     0.0234
     111 H         -0.196299   3.822211   -2.209249 H        1 UNL1     0.0234
     112 H         -4.011846   -1.737469   0.687559 H        1 UNL1     0.0342
     113 H         -3.228198   -0.821455   2.023618 H        1 UNL1     0.0342
     114 H         -4.234097   0.014586   0.837374 H        1 UNL1     0.0342
     115 H         -1.893652   1.642351   3.940817 H        1 UNL1     0.0234
     116 H         -1.568366   3.245622   3.274111 H        1 UNL1     0.0234
     117 H         -2.993437   2.289973   2.816338 H        1 UNL1     0.0234
     118 H         0.213011   7.215598   -1.311321 H        1 UNL1     0.0309
     119 H         1.404306   8.020556   -2.379459 H        1 UNL1     0.0309
     120 H         1.25564   6.27811   -2.316731 H        1 UNL1     0.0309
     121 H         -1.407986   5.583598   3.476801 H        1 UNL1     0.0524
     122 H         -1.319598   6.511175   1.973923 H        1 UNL1     0.0524
     123 H         -2.828305   5.664788   2.399568 H        1 UNL1     0.0524
@<TRIPOS>BOND
     1     1     2    1
     2     1    42    1
     3     2     3    2
     4     3     4    1
     5     4     5    2
     6     5     7    1
     7     6    75    1
     8     6    76    1
     9     6    77    1
    10     7     9   am
    11     9    10    1
    12    10    11    2
    13    10    43    1
    14    11    14    1
    15    11    15    1
    16    12    13   ar
    17    12    27   ar
    18    12    43    1
    19    13    14    1
    20    13    30   ar
    21    14    17    2
    22    15    16    1
    23    16    17    1
    24    16    18    1
    25    16    22    1
    26    18    19    1
    27    19    20    1
    28    20    21    1
    29    21    22    1
    30    23    24    1
    31    23    88    1
    32    23    89    1
    33    24    25    1
    34    24    26    1
    35    24    90    1
    36    25    91    1
    37    25    92    1
    38    25    93    1
    39    26    94    1
    40    26    95    1
    41    26    96    1
    42    27    28   ar
    43    28    29   ar
    44    29    30   ar
    45    29    31    1
    46    30    33    1
    47    31    32    1
    48    32    33    1
    49    32    35    1
    50    34    97    1
    51    34    98    1
    52    34    99    1
    53    35    61    1
    54    36    37    1
    55    36    60    1
    56    37    38    1
    57    38    39    1
    58    39    40    1
    59    40    41    1
    60    41    42    1
    61    45   100    1
    62    47   101    1
    63    47   102    1
    64    47   103    1
    65    48   104    1
    66    49   105    1
    67    49   106    1
    68    49   107    1
    69    50   108    1
    70    51    59    1
    71    52   109    1
    72    52   110    1
    73    52   111    1
    74    53    54    1
    75    54    55    2
    76    54    56    1
    77    56   112    1
    78    56   113    1
    79    56   114    1
    80    57   115    1
    81    57   116    1
    82    57   117    1
    83    58   118    1
    84    58   119    1
    85    58   120    1
    86    59   121    1
    87    59   122    1
    88    59   123    1
    89    60    61    2
    90     1    47    1
    91     1    62    1
    92     2    63    1
    93     3    64    1
    94     4    65    1
    95     5     6    1
    96     7     8    2
    97     9    78    1
    98    15    79    1
    99    18    80    1
   100    18    81    1
   101    19    82    1
   102    19    83    1
   103    20    23    1
   104    21    84    1
   105    21    85    1
   106    22    86    1
   107    22    87    1
   108    27    45    1
   109    28    34    1
   110    32    58    1
   111    33    46    2
   112    36    51    1
   113    36    66    1
   114    37    52    1
   115    37    67    1
   116    38    53    1
   117    38    68    1
   118    42    48    1
   119    42    72    1
   120    43    44    2
   121    60    73    1
   122    61    74    1
   123    39    69    1
   124    39    57    1
   125    40    70    1
   126    40    50    1
   127    41    71    1
   128    41    49    1
