@<TRIPOS>MOLECULE
*****
 123 128 0 0 0
SMALL
GASTEIGER

@<TRIPOS>ATOM
     1 C         5.03658   2.056475   0.644608 C.3        1 UNL1     0.0009
     2 C         6.422419   2.998021   -0.149105 C.2        1 UNL1     -0.0787
     3 C         7.717903   3.019878   -0.795084 C.2        1 UNL1     -0.0649
     4 C         8.512983   4.344332   -1.487925 C.2        1 UNL1     -0.0542
     5 C         9.522593   4.747092   -2.396523 C.2        1 UNL1     0.0115
     6 C         10.706778   4.240011   -3.264795 C.3        1 UNL1     -0.0348
     7 C         9.517223   6.255767   -2.945032 C.2        1 UNL1     0.2441
     8 O         10.272406   7.120261   -2.522097 O.2        1 UNL1     -0.2702
     9 N         8.771434   6.452519   -4.120293 N.am        1 UNL1     -0.2772
     10 C         7.459095   6.731763   -3.815148 C.2        1 UNL1     0.1049
     11 C         6.683075   5.690427   -3.575077 C.2        1 UNL1     0.0801
     12 C         6.024544   8.183058   -2.368379 C.ar        1 UNL1     0.0753
     13 C         5.344228   6.986072   -1.977226 C.ar        1 UNL1     0.0305
     14 C         5.566955   5.718473   -2.669062 C.2        1 UNL1     0.0924
     15 N         6.90589   4.381174   -3.781811 N.pl3        1 UNL1     -0.3170
     16 C         5.679175   3.678884   -3.513084 C.3        1 UNL1     0.1275
     17 N         4.959316   4.546199   -2.509446 N.2        1 UNL1     -0.2557
     18 C         4.843371   3.724342   -4.78865 C.3        1 UNL1     0.0016
     19 C         5.663582   3.141683   -5.928541 C.3        1 UNL1     0.0026
     20 N         6.028941   1.773129   -5.590014 N.3        1 UNL1     -0.3018
     21 C         6.783358   1.621087   -4.344178 C.3        1 UNL1     0.0026
     22 C         5.93899   2.2087   -3.212079 C.3        1 UNL1     0.0016
     23 C         6.54938   1.032027   -6.721631 C.3        1 UNL1     0.0012
     24 C         5.430398   0.736913   -7.732839 C.3        1 UNL1     -0.0339
     25 C         5.636358   1.515447   -9.042619 C.3        1 UNL1     -0.0615
     26 C         5.333503   -0.758401   -7.980684 C.3        1 UNL1     -0.0615
     27 C         5.718734   9.410462   -1.785218 C.ar        1 UNL1     0.1347
     28 C         4.728077   9.571597   -0.833018 C.ar        1 UNL1     0.0342
     29 C         4.105381   8.371808   -0.42815 C.ar        1 UNL1     0.1435
     30 C         4.426476   7.129875   -0.977442 C.ar        1 UNL1     0.0774
     31 O         3.046144   8.375633   0.410307 O.3        1 UNL1     -0.4436
     32 C         2.419705   7.099724   0.20905 C.3        1 UNL1     0.3143
     33 C         3.511459   6.204887   -0.341906 C.2        1 UNL1     0.2504
     34 C         4.174996   10.88318   -0.349332 C.3        1 UNL1     -0.0327
     35 O         2.072581   6.587041   1.501301 O.2        1 UNL1     -0.4528
     36 C         -1.012581   4.439416   0.974448 C.3        1 UNL1     0.0854
     37 C         -1.210443   3.195632   0.025041 C.3        1 UNL1     0.0236
     38 C         -1.727986   1.864375   0.754182 C.3        1 UNL1     0.1131
     39 C         -0.984619   1.337914   2.04744 C.3        1 UNL1     0.0200
     40 C         0.68198   1.312917   2.112716 C.3        1 UNL1     0.0661
     41 C         1.712951   0.662335   0.933118 C.3        1 UNL1     0.0091
     42 C         3.397373   1.170571   0.413673 C.3        1 UNL1     0.0661
     43 C         7.004054   8.089133   -3.479234 C.2        1 UNL1     0.2131
     44 O         7.347259   9.041283   -4.156256 O.2        1 UNL1     -0.2851
     45 O         6.459126   10.519278   -2.189921 O.3        1 UNL1     -0.5056
     46 O         3.614326   5.001589   -0.256197 O.2        1 UNL1     -0.2836
     47 C         5.441944   1.601701   2.072489 C.3        1 UNL1     -0.0566
     48 O         3.94765   -0.206007   0.450343 O.3        1 UNL1     -0.3909
     49 C         0.916929   0.417568   -0.329392 C.3        1 UNL1     -0.0577
     50 O         1.18463   2.555301   2.561656 O.3        1 UNL1     -0.3910
     51 O         -1.143195   4.187326   2.355325 O.3        1 UNL1     -0.3753
     52 C         -0.139806   3.156907   -1.1139 C.3        1 UNL1     -0.0564
     53 O         -2.238634   0.819748   -0.19467 O.3        1 UNL1     -0.4608
     54 C         -2.378072   -0.51337   0.090434 C.2        1 UNL1     0.3042
     55 O         -1.684625   -1.441985   -0.322656 O.2        1 UNL1     -0.2512
     56 C         -3.483026   -0.80764   1.0647 C.3        1 UNL1     0.0332
     57 C         -1.771936   1.90288   3.319886 C.3        1 UNL1     -0.0567
     58 C         1.34574   7.307299   -0.88413 C.3        1 UNL1     0.0210
     59 C         -2.331409   4.707502   2.949825 C.3        1 UNL1     0.0372
     60 C         0.269637   5.172599   0.791361 C.2        1 UNL1     -0.0208
     61 C         1.134784   5.639458   1.692643 C.2        1 UNL1     0.0882
     62 H         4.48802   2.999029   0.760306 H        1 UNL1     0.0365
     63 H         6.077523   4.024615   -0.009032 H        1 UNL1     0.0576
     64 H         8.248978   2.09844   -1.044121 H        1 UNL1     0.0615
     65 H         7.954477   5.20746   -1.115685 H        1 UNL1     0.0622
     66 H         -1.805591   5.140884   0.679279 H        1 UNL1     0.0645
     67 H         -2.087203   3.464267   -0.589522 H        1 UNL1     0.0362
     68 H         -2.709905   2.216756   1.105156 H        1 UNL1     0.0741
     69 H         -1.24346   0.298439   2.198767 H        1 UNL1     0.0359
     70 H         0.828981   0.628861   2.97034 H        1 UNL1     0.0600
     71 H         1.825418   -0.368688   1.322092 H        1 UNL1     0.0348
     72 H         3.241036   1.611344   1.408958 H        1 UNL1     0.0602
     73 H         0.388185   5.418009   -0.234782 H        1 UNL1     0.0628
     74 H         1.116793   5.386737   2.753324 H        1 UNL1     0.1022
     75 H         11.509385   3.808311   -2.619434 H        1 UNL1     0.0279
     76 H         10.491365   3.422474   -3.94912 H        1 UNL1     0.0279
     77 H         11.247112   5.056636   -3.765657 H        1 UNL1     0.0279
     78 H         8.781731   5.601378   -4.678441 H        1 UNL1     0.1553
     79 H         7.610139   4.027315   -4.402898 H        1 UNL1     0.1484
     80 H         3.918167   3.157179   -4.630258 H        1 UNL1     0.0317
     81 H         4.544908   4.751448   -5.024498 H        1 UNL1     0.0317
     82 H         6.556082   3.748922   -6.139767 H        1 UNL1     0.0428
     83 H         5.049515   3.185447   -6.828572 H        1 UNL1     0.0428
     84 H         6.97572   0.57854   -4.072323 H        1 UNL1     0.0428
     85 H         7.784899   2.067307   -4.415724 H        1 UNL1     0.0428
     86 H         6.458809   1.961792   -2.304989 H        1 UNL1     0.0317
     87 H         4.995727   1.656136   -3.122495 H        1 UNL1     0.0317
     88 H         7.311079   1.650702   -7.213923 H        1 UNL1     0.0429
     89 H         7.045326   0.107573   -6.398838 H        1 UNL1     0.0429
     90 H         4.467453   1.031657   -7.299161 H        1 UNL1     0.0308
     91 H         6.671623   1.443793   -9.38931 H        1 UNL1     0.0233
     92 H         4.969986   1.141204   -9.823324 H        1 UNL1     0.0233
     93 H         5.41051   2.583143   -8.933743 H        1 UNL1     0.0233
     94 H         4.843502   -0.951079   -8.94121 H        1 UNL1     0.0233
     95 H         6.334817   -1.196409   -8.019189 H        1 UNL1     0.0233
     96 H         4.760151   -1.256936   -7.19411 H        1 UNL1     0.0233
     97 H         3.104155   10.959001   -0.512984 H        1 UNL1     0.0280
     98 H         4.324824   11.022954   0.729218 H        1 UNL1     0.0280
     99 H         4.666098   11.711257   -0.886177 H        1 UNL1     0.0280
     100 H         5.943001   11.271167   -2.422087 H        1 UNL1     0.2922
     101 H         4.637498   1.0132   2.513158 H        1 UNL1     0.0236
     102 H         5.744257   2.427458   2.715696 H        1 UNL1     0.0236
     103 H         6.310851   0.922706   2.059806 H        1 UNL1     0.0236
     104 H         4.283616   -0.365377   1.354057 H        1 UNL1     0.2098
     105 H         0.688417   1.315828   -0.897478 H        1 UNL1     0.0234
     106 H         1.327868   -0.349854   -0.985227 H        1 UNL1     0.0234
     107 H         0.0   -0.0   0.0 H        1 UNL1     0.0234
     108 H         1.086117   3.190786   1.826657 H        1 UNL1     0.2098
     109 H         -0.186669   4.045194   -1.75924 H        1 UNL1     0.0234
     110 H         0.881796   3.029053   -0.7401 H        1 UNL1     0.0234
     111 H         -0.288931   2.297039   -1.780484 H        1 UNL1     0.0234
     112 H         -4.05941   -1.672915   0.723485 H        1 UNL1     0.0342
     113 H         -3.1077   -0.962053   2.07521 H        1 UNL1     0.0342
     114 H         -4.158523   0.058539   1.089241 H        1 UNL1     0.0342
     115 H         -2.845677   1.675353   3.269889 H        1 UNL1     0.0234
     116 H         -1.400573   1.526114   4.27497 H        1 UNL1     0.0234
     117 H         -1.789887   3.00509   3.372357 H        1 UNL1     0.0234
     118 H         0.321537   7.230027   -0.479108 H        1 UNL1     0.0309
     119 H         1.450457   8.259395   -1.413989 H        1 UNL1     0.0309
     120 H         1.372664   6.527675   -1.653264 H        1 UNL1     0.0309
     121 H         -2.126139   4.872256   4.007217 H        1 UNL1     0.0524
     122 H         -2.627588   5.676319   2.514271 H        1 UNL1     0.0524
     123 H         -3.149966   4.003068   2.83222 H        1 UNL1     0.0524
@<TRIPOS>BOND
     1     1     2    1
     2     1    42    1
     3     2     3    2
     4     3     4    1
     5     4     5    2
     6     5     7    1
     7     6    75    1
     8     6    76    1
     9     6    77    1
    10     7     9   am
    11     9    10    1
    12    10    11    2
    13    10    43    1
    14    11    14    1
    15    11    15    1
    16    12    13   ar
    17    12    27   ar
    18    12    43    1
    19    13    14    1
    20    13    30   ar
    21    14    17    2
    22    15    16    1
    23    16    17    1
    24    16    18    1
    25    16    22    1
    26    18    19    1
    27    19    20    1
    28    20    21    1
    29    21    22    1
    30    23    24    1
    31    23    88    1
    32    23    89    1
    33    24    25    1
    34    24    26    1
    35    24    90    1
    36    25    91    1
    37    25    92    1
    38    25    93    1
    39    26    94    1
    40    26    95    1
    41    26    96    1
    42    27    28   ar
    43    28    29   ar
    44    29    30   ar
    45    29    31    1
    46    30    33    1
    47    31    32    1
    48    32    33    1
    49    32    35    1
    50    34    97    1
    51    34    98    1
    52    34    99    1
    53    35    61    1
    54    36    37    1
    55    36    60    1
    56    37    38    1
    57    38    39    1
    58    39    40    1
    59    40    41    1
    60    41    42    1
    61    45   100    1
    62    47   101    1
    63    47   102    1
    64    47   103    1
    65    48   104    1
    66    49   105    1
    67    49   106    1
    68    49   107    1
    69    50   108    1
    70    51    59    1
    71    52   109    1
    72    52   110    1
    73    52   111    1
    74    53    54    1
    75    54    55    2
    76    54    56    1
    77    56   112    1
    78    56   113    1
    79    56   114    1
    80    57   115    1
    81    57   116    1
    82    57   117    1
    83    58   118    1
    84    58   119    1
    85    58   120    1
    86    59   121    1
    87    59   122    1
    88    59   123    1
    89    60    61    2
    90     1    47    1
    91     1    62    1
    92     2    63    1
    93     3    64    1
    94     4    65    1
    95     5     6    1
    96     7     8    2
    97     9    78    1
    98    15    79    1
    99    18    80    1
   100    18    81    1
   101    19    82    1
   102    19    83    1
   103    20    23    1
   104    21    84    1
   105    21    85    1
   106    22    86    1
   107    22    87    1
   108    27    45    1
   109    28    34    1
   110    32    58    1
   111    33    46    2
   112    36    51    1
   113    36    66    1
   114    37    52    1
   115    37    67    1
   116    38    53    1
   117    38    68    1
   118    42    48    1
   119    42    72    1
   120    43    44    2
   121    60    73    1
   122    61    74    1
   123    39    69    1
   124    39    57    1
   125    40    70    1
   126    40    50    1
   127    41    71    1
   128    41    49    1
