@<TRIPOS>MOLECULE
*****
 123 128 0 0 0
SMALL
GASTEIGER

@<TRIPOS>ATOM
     1 C         -0.969854   -2.153402   -4.901307 C.3        1 UNL1     0.0009
     2 C         -0.210627   -2.551849   -6.545038 C.2        1 UNL1     -0.0787
     3 C         -0.076432   -2.291422   -7.962859 C.2        1 UNL1     -0.0649
     4 C         0.998699   -3.009946   -9.055641 C.2        1 UNL1     -0.0542
     5 C         1.636672   -2.877775   -10.313656 C.2        1 UNL1     0.0115
     6 C         1.661462   -2.052364   -11.629485 C.3        1 UNL1     -0.0348
     7 C         2.938062   -3.765693   -10.621835 C.2        1 UNL1     0.2441
     8 O         2.908408   -4.769958   -11.31976 O.2        1 UNL1     -0.2702
     9 N         4.157527   -3.170796   -10.254203 N.am        1 UNL1     -0.2772
     10 C         4.463137   -3.470644   -8.946527 C.2        1 UNL1     0.1049
     11 C         3.891999   -2.713901   -8.027091 C.2        1 UNL1     0.0801
     12 C         4.623619   -5.376045   -7.333758 C.ar        1 UNL1     0.0753
     13 C         3.819416   -4.591039   -6.4474 C.ar        1 UNL1     0.0305
     14 C         3.538625   -3.182161   -6.71437 C.2        1 UNL1     0.0924
     15 N         3.218647   -1.557834   -8.156071 N.pl3        1 UNL1     -0.3170
     16 C         2.952652   -1.054473   -6.83466 C.3        1 UNL1     0.1275
     17 N         2.903917   -2.286164   -5.963863 N.2        1 UNL1     -0.2557
     18 C         4.185255   -0.271666   -6.392389 C.3        1 UNL1     0.0016
     19 C         4.475537   0.803748   -7.427188 C.3        1 UNL1     0.0026
     20 N         3.313075   1.67433   -7.535803 N.3        1 UNL1     -0.3018
     21 C         2.063781   1.001178   -7.897049 C.3        1 UNL1     0.0026
     22 C         1.789191   -0.071694   -6.841851 C.3        1 UNL1     0.0016
     23 C         3.589629   2.896035   -8.264912 C.3        1 UNL1     0.0012
     24 C         2.34983   3.803926   -8.284586 C.3        1 UNL1     -0.0339
     25 C         2.004415   4.253179   -9.713893 C.3        1 UNL1     -0.0615
     26 C         1.178557   3.100362   -7.621339 C.3        1 UNL1     -0.0615
     27 C         4.986994   -6.681881   -7.013024 C.ar        1 UNL1     0.1347
     28 C         4.6408   -7.294312   -5.821753 C.ar        1 UNL1     0.0342
     29 C         3.808142   -6.519738   -4.986361 C.ar        1 UNL1     0.1435
     30 C         3.406201   -5.223436   -5.310808 C.ar        1 UNL1     0.0774
     31 O         3.475657   -6.933204   -3.743982 O.3        1 UNL1     -0.4436
     32 C         3.059468   -5.739494   -3.063751 C.3        1 UNL1     0.3143
     33 C         2.642665   -4.782459   -4.162192 C.2        1 UNL1     0.2504
     34 C         5.199369   -8.589371   -5.30125 C.3        1 UNL1     -0.0327
     35 O         1.877348   -6.06254   -2.32113 O.2        1 UNL1     -0.4528
     36 C         1.897727   -3.780475   0.711995 C.3        1 UNL1     0.0854
     37 C         1.946099   -2.205222   0.773318 C.3        1 UNL1     0.0236
     38 C         0.760416   -1.524767   1.611698 C.3        1 UNL1     0.1131
     39 C         -0.741009   -1.924224   1.314335 C.3        1 UNL1     0.0200
     40 C         -1.279684   -2.075449   -0.257097 C.3        1 UNL1     0.0661
     41 C         -1.059054   -0.938828   -1.496865 C.3        1 UNL1     0.0091
     42 C         -0.846758   -1.174805   -3.303698 C.3        1 UNL1     0.0661
     43 C         5.132754   -4.723095   -8.565301 C.2        1 UNL1     0.2131
     44 O         6.106482   -5.115851   -9.182011 O.2        1 UNL1     -0.2851
     45 O         5.732736   -7.392845   -7.95102 O.3        1 UNL1     -0.5056
     46 O         1.843585   -3.874534   -4.107446 O.2        1 UNL1     -0.2836
     47 C         -2.435226   -2.662963   -4.846412 C.3        1 UNL1     -0.0566
     48 O         -1.83749   -0.134379   -3.671231 O.3        1 UNL1     -0.3909
     49 C         -0.017665   0.066265   -1.057788 C.3        1 UNL1     -0.0577
     50 O         -1.035851   -3.378527   -0.747257 O.3        1 UNL1     -0.3910
     51 O         0.739331   -4.382426   1.244166 O.3        1 UNL1     -0.3753
     52 C         2.482933   -1.587305   -0.558949 C.3        1 UNL1     -0.0564
     53 O         1.014063   -0.084918   1.950559 O.3        1 UNL1     -0.4608
     54 C         0.383638   0.621798   2.941037 C.2        1 UNL1     0.3042
     55 O         0.751374   1.677333   3.455288 O.2        1 UNL1     -0.2512
     56 C         -0.925569   0.021539   3.368096 C.3        1 UNL1     0.0332
     57 C         -1.151615   -3.066269   2.356119 C.3        1 UNL1     -0.0567
     58 C         4.316415   -5.175581   -2.361173 C.3        1 UNL1     0.0210
     59 C         -0.037742   -5.122298   0.303628 C.3        1 UNL1     0.0372
     60 C         2.101021   -4.363614   -0.642176 C.2        1 UNL1     -0.0208
     61 C         1.44416   -5.339471   -1.270652 C.2        1 UNL1     0.0882
     62 H         -0.349441   -2.935195   -4.446776 H        1 UNL1     0.0365
     63 H         0.382524   -3.431769   -6.287392 H        1 UNL1     0.0576
     64 H         -0.57831   -1.446514   -8.439678 H        1 UNL1     0.0615
     65 H         1.380738   -3.878529   -8.512417 H        1 UNL1     0.0622
     66 H         2.758342   -4.106649   1.312827 H        1 UNL1     0.0645
     67 H         2.819442   -1.988516   1.412748 H        1 UNL1     0.0362
     68 H         0.980009   -1.936743   2.608482 H        1 UNL1     0.0741
     69 H         -1.390957   -1.157813   1.715072 H        1 UNL1     0.0359
     70 H         -2.373019   -2.043707   -0.087774 H        1 UNL1     0.0600
     71 H         -1.990114   -0.349031   -1.3863 H        1 UNL1     0.0348
     72 H         -1.299411   -2.103791   -2.92766 H        1 UNL1     0.0602
     73 H         2.989734   -3.96467   -1.064409 H        1 UNL1     0.0628
     74 H         0.496324   -5.760935   -0.934181 H        1 UNL1     0.1022
     75 H         0.801432   -1.340806   -11.662152 H        1 UNL1     0.0279
     76 H         2.515509   -1.394364   -11.773391 H        1 UNL1     0.0279
     77 H         1.468216   -2.667091   -12.520814 H        1 UNL1     0.0279
     78 H         4.079673   -2.158457   -10.326212 H        1 UNL1     0.1553
     79 H         3.282231   -0.963149   -8.961825 H        1 UNL1     0.1484
     80 H         3.99629   0.164225   -5.403927 H        1 UNL1     0.0317
     81 H         5.05077   -0.93386   -6.282681 H        1 UNL1     0.0317
     82 H         4.73738   0.369445   -8.403268 H        1 UNL1     0.0428
     83 H         5.359027   1.34864   -7.09314 H        1 UNL1     0.0428
     84 H         1.192106   1.662981   -7.893822 H        1 UNL1     0.0428
     85 H         2.094271   0.605118   -8.921511 H        1 UNL1     0.0428
     86 H         0.8082   -0.450041   -7.062073 H        1 UNL1     0.0317
     87 H         1.666137   0.394512   -5.856658 H        1 UNL1     0.0317
     88 H         4.401967   3.424931   -7.749479 H        1 UNL1     0.0429
     89 H         3.940075   2.682251   -9.28288 H        1 UNL1     0.0429
     90 H         2.547328   4.694798   -7.676675 H        1 UNL1     0.0308
     91 H         1.57897   3.431149   -10.297302 H        1 UNL1     0.0233
     92 H         1.296262   5.084947   -9.696866 H        1 UNL1     0.0233
     93 H         2.88362   4.61131   -10.263052 H        1 UNL1     0.0233
     94 H         1.293882   2.014286   -7.704859 H        1 UNL1     0.0233
     95 H         1.143118   3.354854   -6.558352 H        1 UNL1     0.0233
     96 H         0.228981   3.383633   -8.083972 H        1 UNL1     0.0233
     97 H         5.413436   -9.291625   -6.101403 H        1 UNL1     0.0280
     98 H         6.146988   -8.445855   -4.765827 H        1 UNL1     0.0280
     99 H         4.472222   -9.056369   -4.61695 H        1 UNL1     0.0280
     100 H         5.904881   -8.288019   -7.717243 H        1 UNL1     0.2922
     101 H         -2.542037   -3.544045   -5.478822 H        1 UNL1     0.0236
     102 H         -3.166234   -1.893001   -5.090889 H        1 UNL1     0.0236
     103 H         -2.716466   -3.00714   -3.837136 H        1 UNL1     0.0236
     104 H         -2.283978   -0.42814   -4.489353 H        1 UNL1     0.2098
     105 H         0.986175   -0.139415   -1.420848 H        1 UNL1     0.0234
     106 H         -0.281501   1.106944   -1.245686 H        1 UNL1     0.0234
     107 H         0.0   0.0   0.0 H        1 UNL1     0.0234
     108 H         -0.897728   -3.958347   0.02637 H        1 UNL1     0.2098
     109 H         3.109071   -0.701287   -0.38392 H        1 UNL1     0.0234
     110 H         3.030696   -2.306772   -1.177064 H        1 UNL1     0.0234
     111 H         1.66362   -1.248926   -1.207156 H        1 UNL1     0.0234
     112 H         -0.748735   -0.783397   4.087926 H        1 UNL1     0.0342
     113 H         -1.604805   0.768456   3.776259 H        1 UNL1     0.0342
     114 H         -1.406543   -0.417612   2.483238 H        1 UNL1     0.0342
     115 H         -0.79836   -2.839095   3.371398 H        1 UNL1     0.0234
     116 H         -2.226656   -3.247449   2.415362 H        1 UNL1     0.0234
     117 H         -0.653188   -4.03284   2.168364 H        1 UNL1     0.0234
     118 H         4.919419   -4.542567   -3.035477 H        1 UNL1     0.0309
     119 H         4.083891   -4.610991   -1.452672 H        1 UNL1     0.0309
     120 H         5.017146   -5.961482   -2.058779 H        1 UNL1     0.0309
     121 H         -0.831109   -4.467645   -0.05603 H        1 UNL1     0.0524
     122 H         0.554157   -5.438313   -0.571488 H        1 UNL1     0.0524
     123 H         -0.463732   -6.00211   0.777504 H        1 UNL1     0.0524
@<TRIPOS>BOND
     1     1     2    1
     2     1    42    1
     3     2     3    2
     4     3     4    1
     5     4     5    2
     6     5     7    1
     7     6    75    1
     8     6    76    1
     9     6    77    1
    10     7     9   am
    11     9    10    1
    12    10    11    2
    13    10    43    1
    14    11    14    1
    15    11    15    1
    16    12    13   ar
    17    12    27   ar
    18    12    43    1
    19    13    14    1
    20    13    30   ar
    21    14    17    2
    22    15    16    1
    23    16    17    1
    24    16    18    1
    25    16    22    1
    26    18    19    1
    27    19    20    1
    28    20    21    1
    29    21    22    1
    30    23    24    1
    31    23    88    1
    32    23    89    1
    33    24    25    1
    34    24    26    1
    35    24    90    1
    36    25    91    1
    37    25    92    1
    38    25    93    1
    39    26    94    1
    40    26    95    1
    41    26    96    1
    42    27    28   ar
    43    28    29   ar
    44    29    30   ar
    45    29    31    1
    46    30    33    1
    47    31    32    1
    48    32    33    1
    49    32    35    1
    50    34    97    1
    51    34    98    1
    52    34    99    1
    53    35    61    1
    54    36    37    1
    55    36    60    1
    56    37    38    1
    57    38    39    1
    58    39    40    1
    59    40    41    1
    60    41    42    1
    61    45   100    1
    62    47   101    1
    63    47   102    1
    64    47   103    1
    65    48   104    1
    66    49   105    1
    67    49   106    1
    68    49   107    1
    69    50   108    1
    70    51    59    1
    71    52   109    1
    72    52   110    1
    73    52   111    1
    74    53    54    1
    75    54    55    2
    76    54    56    1
    77    56   112    1
    78    56   113    1
    79    56   114    1
    80    57   115    1
    81    57   116    1
    82    57   117    1
    83    58   118    1
    84    58   119    1
    85    58   120    1
    86    59   121    1
    87    59   122    1
    88    59   123    1
    89    60    61    2
    90     1    47    1
    91     1    62    1
    92     2    63    1
    93     3    64    1
    94     4    65    1
    95     5     6    1
    96     7     8    2
    97     9    78    1
    98    15    79    1
    99    18    80    1
   100    18    81    1
   101    19    82    1
   102    19    83    1
   103    20    23    1
   104    21    84    1
   105    21    85    1
   106    22    86    1
   107    22    87    1
   108    27    45    1
   109    28    34    1
   110    32    58    1
   111    33    46    2
   112    36    51    1
   113    36    66    1
   114    37    52    1
   115    37    67    1
   116    38    53    1
   117    38    68    1
   118    42    48    1
   119    42    72    1
   120    43    44    2
   121    60    73    1
   122    61    74    1
   123    39    69    1
   124    39    57    1
   125    40    70    1
   126    40    50    1
   127    41    71    1
   128    41    49    1
