@<TRIPOS>MOLECULE
*****
 123 128 0 0 0
SMALL
GASTEIGER

@<TRIPOS>ATOM
     1 C         4.97142   2.239814   0.529111 C.3        1 UNL1     0.0009
     2 C         6.358626   3.116851   -0.333156 C.2        1 UNL1     -0.0787
     3 C         7.670996   3.095522   -0.944119 C.2        1 UNL1     -0.0649
     4 C         8.456808   4.350006   -1.76578 C.2        1 UNL1     -0.0542
     5 C         9.48274   4.669552   -2.689052 C.2        1 UNL1     0.0115
     6 C         10.701411   4.094565   -3.462068 C.3        1 UNL1     -0.0348
     7 C         9.460614   6.104089   -3.409193 C.2        1 UNL1     0.2441
     8 O         10.184999   7.029893   -3.070549 O.2        1 UNL1     -0.2702
     9 N         8.74413   6.145323   -4.617954 N.am        1 UNL1     -0.2772
     10 C         7.418075   6.425815   -4.380837 C.2        1 UNL1     0.1049
     11 C         6.658   5.400571   -4.041158 C.2        1 UNL1     0.0801
     12 C         5.912793   7.999175   -3.149579 C.ar        1 UNL1     0.0753
     13 C         5.247435   6.839183   -2.639359 C.ar        1 UNL1     0.0305
     14 C         5.516508   5.505909   -3.173244 C.2        1 UNL1     0.0924
     15 N         6.914412   4.082036   -4.088543 N.pl3        1 UNL1     -0.3170
     16 C         5.695887   3.385757   -3.771297 C.3        1 UNL1     0.1275
     17 N         4.929764   4.345457   -2.893941 N.2        1 UNL1     -0.2557
     18 C         4.895491   3.262956   -5.064351 C.3        1 UNL1     0.0016
     19 C         5.759662   2.572613   -6.107531 C.3        1 UNL1     0.0026
     20 N         6.144467   1.261731   -5.603009 N.3        1 UNL1     -0.3018
     21 C         6.866635   1.273268   -4.329153 C.3        1 UNL1     0.0026
     22 C         5.978436   1.967039   -3.2949 C.3        1 UNL1     0.0016
     23 C         6.7122   0.407685   -6.627181 C.3        1 UNL1     0.0012
     24 C         5.628635   -0.029651   -7.62537 C.3        1 UNL1     -0.0339
     25 C         5.887246   -1.452081   -8.148698 C.3        1 UNL1     -0.0615
     26 C         4.254971   0.0906   -6.988686 C.3        1 UNL1     -0.0615
     27 C         5.564601   9.277938   -2.721037 C.ar        1 UNL1     0.1347
     28 C         4.544356   9.52384   -1.819548 C.ar        1 UNL1     0.0342
     29 C         3.936257   8.364058   -1.293919 C.ar        1 UNL1     0.1435
     30 C         4.299083   7.07516   -1.686753 C.ar        1 UNL1     0.0774
     31 O         2.854028   8.438923   -0.488821 O.3        1 UNL1     -0.4436
     32 C         2.260851   7.133371   -0.556255 C.3        1 UNL1     0.3143
     33 C         3.386498   6.207782   -0.971483 C.2        1 UNL1     0.2504
     34 C         3.950048   10.868642   -1.505854 C.3        1 UNL1     -0.0327
     35 O         1.888552   6.765234   0.777581 O.2        1 UNL1     -0.4528
     36 C         -1.134072   4.49632   0.425639 C.3        1 UNL1     0.0854
     37 C         -1.278593   3.146626   -0.377458 C.3        1 UNL1     0.0236
     38 C         -1.787916   1.896368   0.488099 C.3        1 UNL1     0.1131
     39 C         -1.070138   1.541325   1.852287 C.3        1 UNL1     0.0200
     40 C         0.594121   1.564792   1.962416 C.3        1 UNL1     0.0661
     41 C         1.671486   0.807563   0.893071 C.3        1 UNL1     0.0091
     42 C         3.358621   1.293343   0.361096 C.3        1 UNL1     0.0661
     43 C         6.924923   7.801392   -4.216694 C.2        1 UNL1     0.2131
     44 O         7.266638   8.676966   -4.990863 O.2        1 UNL1     -0.2851
     45 O         6.292258   10.35028   -3.23293 O.3        1 UNL1     -0.5056
     46 O         3.512557   5.025345   -0.743874 O.2        1 UNL1     -0.2836
     47 C         5.346092   1.963259   2.01003 C.3        1 UNL1     -0.0566
     48 O         3.936885   -0.055893   0.571545 O.3        1 UNL1     -0.3909
     49 C         0.91667   0.399053   -0.352267 C.3        1 UNL1     -0.0577
     50 O         1.057339   2.862671   2.276521 O.3        1 UNL1     -0.3910
     51 O         -1.298046   4.40249   1.822686 O.3        1 UNL1     -0.3753
     52 C         -0.17578   3.002637   -1.476558 C.3        1 UNL1     -0.0564
     53 O         -2.249293   0.736854   -0.345559 O.3        1 UNL1     -0.4608
     54 C         -2.368224   -0.557357   0.088953 C.2        1 UNL1     0.3042
     55 O         -1.599264   -1.492472   -0.130361 O.2        1 UNL1     -0.2512
     56 C         -3.560565   -0.787683   0.973253 C.3        1 UNL1     0.0332
     57 C         -1.904784   2.230231   3.029974 C.3        1 UNL1     -0.0567
     58 C         1.213858   7.18682   -1.693128 C.3        1 UNL1     0.0210
     59 C         -2.513326   4.958722   2.32225 C.3        1 UNL1     0.0372
     60 C         0.136857   5.234535   0.191245 C.2        1 UNL1     -0.0208
     61 C         0.966171   5.823496   1.053861 C.2        1 UNL1     0.0882
     62 H         4.399845   3.17573   0.52045 H        1 UNL1     0.0365
     63 H         5.98811   4.144016   -0.322204 H        1 UNL1     0.0576
     64 H         8.228394   2.164726   -1.070748 H        1 UNL1     0.0615
     65 H         7.869775   5.236478   -1.510742 H        1 UNL1     0.0622
     66 H         -1.933252   5.139351   0.030837 H        1 UNL1     0.0645
     67 H         -2.143261   3.320876   -1.041194 H        1 UNL1     0.0362
     68 H         -2.786607   2.262863   0.770625 H        1 UNL1     0.0741
     69 H         -1.310901   0.520308   2.116798 H        1 UNL1     0.0359
     70 H         0.731512   0.988301   2.897211 H        1 UNL1     0.0600
     71 H         1.794939   -0.168502   1.402006 H        1 UNL1     0.0348
     72 H         3.165002   1.842301   1.294087 H        1 UNL1     0.0602
     73 H         0.278941   5.362457   -0.853119 H        1 UNL1     0.0628
     74 H         0.923764   5.694766   2.135928 H        1 UNL1     0.1022
     75 H         11.494584   3.760142   -2.750681 H        1 UNL1     0.0279
     76 H         10.522806   3.198357   -4.051967 H        1 UNL1     0.0279
     77 H         11.23807   4.860754   -4.040558 H        1 UNL1     0.0279
     78 H         8.788265   5.235854   -5.072922 H        1 UNL1     0.1553
     79 H         7.64323   3.676049   -4.646156 H        1 UNL1     0.1484
     80 H         3.978507   2.695468   -4.864692 H        1 UNL1     0.0317
     81 H         4.581937   4.248293   -5.425526 H        1 UNL1     0.0317
     82 H         6.644593   3.172987   -6.365139 H        1 UNL1     0.0428
     83 H         5.170345   2.496979   -7.02188 H        1 UNL1     0.0428
     84 H         7.073472   0.27417   -3.933132 H        1 UNL1     0.0428
     85 H         7.860047   1.73257   -4.42658 H        1 UNL1     0.0428
     86 H         6.477699   1.839466   -2.352324 H        1 UNL1     0.0317
     87 H         5.045028   1.405649   -3.165718 H        1 UNL1     0.0317
     88 H         7.474067   0.983714   -7.168517 H        1 UNL1     0.0429
     89 H         7.218481   -0.460837   -6.186588 H        1 UNL1     0.0429
     90 H         5.625382   0.660621   -8.477266 H        1 UNL1     0.0308
     91 H         6.138527   -2.136465   -7.332868 H        1 UNL1     0.0233
     92 H         5.011989   -1.833329   -8.679907 H        1 UNL1     0.0233
     93 H         6.718726   -1.489574   -8.862889 H        1 UNL1     0.0233
     94 H         3.506055   -0.414719   -7.608052 H        1 UNL1     0.0233
     95 H         4.256175   -0.386538   -6.004663 H        1 UNL1     0.0233
     96 H         3.958875   1.137006   -6.873235 H        1 UNL1     0.0233
     97 H         3.082817   10.789551   -0.857098 H        1 UNL1     0.0280
     98 H         4.659162   11.522284   -0.981291 H        1 UNL1     0.0280
     99 H         3.638094   11.361518   -2.44119 H        1 UNL1     0.0280
     100 H         5.766944   11.057433   -3.563993 H        1 UNL1     0.2922
     101 H         4.441441   1.785542   2.591132 H        1 UNL1     0.0236
     102 H         5.966809   2.74412   2.448151 H        1 UNL1     0.0236
     103 H         5.936804   1.038758   2.122058 H        1 UNL1     0.0236
     104 H         4.250637   -0.101426   1.495913 H        1 UNL1     0.2098
     105 H         0.685029   1.219751   -1.026514 H        1 UNL1     0.0234
     106 H         1.362209   -0.428724   -0.903817 H        1 UNL1     0.0234
     107 H         0.0   -0.0   0.0 H        1 UNL1     0.0234
     108 H         2.018763   2.876835   2.105545 H        1 UNL1     0.2098
     109 H         -0.223419   3.808922   -2.221773 H        1 UNL1     0.0234
     110 H         0.837404   2.943879   -1.064554 H        1 UNL1     0.0234
     111 H         -0.287734   2.068065   -2.042233 H        1 UNL1     0.0234
     112 H         -4.063208   -1.716188   0.685894 H        1 UNL1     0.0342
     113 H         -3.291712   -0.799347   2.028443 H        1 UNL1     0.0342
     114 H         -4.267094   0.039453   0.818892 H        1 UNL1     0.0342
     115 H         -1.949783   1.594233   3.924775 H        1 UNL1     0.0234
     116 H         -1.517554   3.20348   3.338015 H        1 UNL1     0.0234
     117 H         -2.977316   2.348252   2.798266 H        1 UNL1     0.0234
     118 H         0.181011   7.117518   -1.30916 H        1 UNL1     0.0309
     119 H         1.304181   8.08052   -2.318704 H        1 UNL1     0.0309
     120 H         1.288242   6.331553   -2.373635 H        1 UNL1     0.0309
     121 H         -2.341423   5.249618   3.358196 H        1 UNL1     0.0524
     122 H         -2.817741   5.86314   1.769622 H        1 UNL1     0.0524
     123 H         -3.313042   4.225615   2.266545 H        1 UNL1     0.0524
@<TRIPOS>BOND
     1     1     2    1
     2     1    42    1
     3     2     3    2
     4     3     4    1
     5     4     5    2
     6     5     7    1
     7     6    75    1
     8     6    76    1
     9     6    77    1
    10     7     9   am
    11     9    10    1
    12    10    11    2
    13    10    43    1
    14    11    14    1
    15    11    15    1
    16    12    13   ar
    17    12    27   ar
    18    12    43    1
    19    13    14    1
    20    13    30   ar
    21    14    17    2
    22    15    16    1
    23    16    17    1
    24    16    18    1
    25    16    22    1
    26    18    19    1
    27    19    20    1
    28    20    21    1
    29    21    22    1
    30    23    24    1
    31    23    88    1
    32    23    89    1
    33    24    25    1
    34    24    26    1
    35    24    90    1
    36    25    91    1
    37    25    92    1
    38    25    93    1
    39    26    94    1
    40    26    95    1
    41    26    96    1
    42    27    28   ar
    43    28    29   ar
    44    29    30   ar
    45    29    31    1
    46    30    33    1
    47    31    32    1
    48    32    33    1
    49    32    35    1
    50    34    97    1
    51    34    98    1
    52    34    99    1
    53    35    61    1
    54    36    37    1
    55    36    60    1
    56    37    38    1
    57    38    39    1
    58    39    40    1
    59    40    41    1
    60    41    42    1
    61    45   100    1
    62    47   101    1
    63    47   102    1
    64    47   103    1
    65    48   104    1
    66    49   105    1
    67    49   106    1
    68    49   107    1
    69    50   108    1
    70    51    59    1
    71    52   109    1
    72    52   110    1
    73    52   111    1
    74    53    54    1
    75    54    55    2
    76    54    56    1
    77    56   112    1
    78    56   113    1
    79    56   114    1
    80    57   115    1
    81    57   116    1
    82    57   117    1
    83    58   118    1
    84    58   119    1
    85    58   120    1
    86    59   121    1
    87    59   122    1
    88    59   123    1
    89    60    61    2
    90     1    47    1
    91     1    62    1
    92     2    63    1
    93     3    64    1
    94     4    65    1
    95     5     6    1
    96     7     8    2
    97     9    78    1
    98    15    79    1
    99    18    80    1
   100    18    81    1
   101    19    82    1
   102    19    83    1
   103    20    23    1
   104    21    84    1
   105    21    85    1
   106    22    86    1
   107    22    87    1
   108    27    45    1
   109    28    34    1
   110    32    58    1
   111    33    46    2
   112    36    51    1
   113    36    66    1
   114    37    52    1
   115    37    67    1
   116    38    53    1
   117    38    68    1
   118    42    48    1
   119    42    72    1
   120    43    44    2
   121    60    73    1
   122    61    74    1
   123    39    69    1
   124    39    57    1
   125    40    70    1
   126    40    50    1
   127    41    71    1
   128    41    49    1
