@<TRIPOS>MOLECULE
*****
 123 128 0 0 0
SMALL
GASTEIGER

@<TRIPOS>ATOM
     1 C         -4.628886   0.02009   2.621058 C.3        1 UNL1     0.0009
     2 C         -5.986948   1.078206   3.308877 C.2        1 UNL1     -0.0787
     3 C         -6.544691   1.857813   4.393858 C.2        1 UNL1     -0.0649
     4 C         -7.948685   2.803852   4.380878 C.2        1 UNL1     -0.0542
     5 C         -8.641504   3.8622   5.018827 C.2        1 UNL1     0.0115
     6 C         -8.656834   4.777864   6.273677 C.3        1 UNL1     -0.0348
     7 C         -9.825179   4.604018   4.227874 C.2        1 UNL1     0.2441
     8 O         -11.009203   4.385029   4.443878 O.2        1 UNL1     -0.2702
     9 N         -9.417907   5.707259   3.457719 N.am        1 UNL1     -0.2772
     10 C         -9.049045   5.301899   2.195599 C.2        1 UNL1     0.1049
     11 C         -7.817592   4.84185   2.06871 C.2        1 UNL1     0.0801
     12 C         -9.807878   3.915744   0.256506 C.ar        1 UNL1     0.0753
     13 C         -8.518107   3.29639   0.295247 C.ar        1 UNL1     0.0305
     14 C         -7.436422   3.832213   1.118595 C.2        1 UNL1     0.0924
     15 N         -6.78332   4.894253   2.925486 N.pl3        1 UNL1     -0.3170
     16 C         -5.618481   4.402563   2.238722 C.3        1 UNL1     0.1275
     17 N         -6.164569   3.452119   1.201337 N.2        1 UNL1     -0.2557
     18 C         -5.020638   5.57459   1.466298 C.3        1 UNL1     0.0016
     19 C         -4.743108   6.708252   2.440657 C.3        1 UNL1     0.0026
     20 N         -3.82294   6.231049   3.46369 N.3        1 UNL1     -0.3018
     21 C         -4.2845   5.065212   4.220099 C.3        1 UNL1     0.0026
     22 C         -4.552796   3.937271   3.22227 C.3        1 UNL1     0.0016
     23 C         -3.262151   7.302858   4.262054 C.3        1 UNL1     0.0012
     24 C         -3.565212   8.666674   3.621808 C.3        1 UNL1     -0.0339
     25 C         -3.788701   8.539081   2.105949 C.3        1 UNL1     -0.0615
     26 C         -4.755459   9.312072   4.309962 C.3        1 UNL1     -0.0615
     27 C         -10.795292   3.472585   -0.620273 C.ar        1 UNL1     0.1347
     28 C         -10.597788   2.448876   -1.529703 C.ar        1 UNL1     0.0342
     29 C         -9.336859   1.82188   -1.439719 C.ar        1 UNL1     0.1435
     30 C         -8.350556   2.231385   -0.541536 C.ar        1 UNL1     0.0774
     31 O         -8.952134   0.88171   -2.330267 O.3        1 UNL1     -0.4436
     32 C         -7.521412   0.841174   -2.219522 C.3        1 UNL1     0.3143
     33 C         -7.215561   1.38231   -0.837553 C.2        1 UNL1     0.2504
     34 C         -11.515715   2.088191   -2.664346 C.3        1 UNL1     -0.0327
     35 O         -7.13281   -0.538039   -2.222917 O.2        1 UNL1     -0.4528
     36 C         -3.674667   -0.641006   -3.784562 C.3        1 UNL1     0.0854
     37 C         -2.358458   0.106158   -3.340871 C.3        1 UNL1     0.0236
     38 C         -1.093991   -0.846481   -3.08524 C.3        1 UNL1     0.1131
     39 C         -1.24046   -2.110382   -2.145362 C.3        1 UNL1     0.0200
     40 C         -2.065733   -1.997464   -0.700159 C.3        1 UNL1     0.0661
     41 C         -1.82945   -0.810952   0.488945 C.3        1 UNL1     0.0091
     42 C         -3.016333   -0.048697   1.661838 C.3        1 UNL1     0.0661
     43 C         -10.029761   5.103531   1.11801 C.2        1 UNL1     0.2131
     44 O         -10.894115   5.935158   0.908183 O.2        1 UNL1     -0.2851
     45 O         -12.038064   4.099984   -0.562613 O.3        1 UNL1     -0.5056
     46 O         -6.260916   1.147842   -0.130779 O.2        1 UNL1     -0.2836
     47 C         -4.689704   -1.403439   3.237375 C.3        1 UNL1     -0.0566
     48 O         -2.13058   -0.209597   2.840256 O.3        1 UNL1     -0.3909
     49 C         -1.007559   0.313647   -0.100347 C.3        1 UNL1     -0.0577
     50 O         -3.448196   -2.21881   -0.89387 O.3        1 UNL1     -0.3910
     51 O         -3.63077   -2.049155   -3.733365 O.3        1 UNL1     -0.3753
     52 C         -2.668059   1.338878   -2.430104 C.3        1 UNL1     -0.0564
     53 O         0.209946   -0.107074   -3.012073 O.3        1 UNL1     -0.4608
     54 C         0.996343   0.009522   -1.895867 C.2        1 UNL1     0.3042
     55 O         1.475368   1.039943   -1.424054 O.2        1 UNL1     -0.2512
     56 C         1.218953   -1.291438   -1.178469 C.3        1 UNL1     0.0332
     57 C         -1.542067   -3.373424   -3.079136 C.3        1 UNL1     -0.0567
     58 C         -6.972823   1.829455   -3.274928 C.3        1 UNL1     0.0210
     59 C         -4.850739   -2.700059   -4.085311 C.3        1 UNL1     0.0372
     60 C         -4.908135   -0.223524   -3.06385 C.2        1 UNL1     -0.0208
     61 C         -5.891497   -0.955057   -2.53792 C.2        1 UNL1     0.0882
     62 H         -5.173273   -0.027053   1.6702 H        1 UNL1     0.0365
     63 H         -6.708869   1.040377   2.490422 H        1 UNL1     0.0576
     64 H         -5.986719   2.037234   5.315586 H        1 UNL1     0.0615
     65 H         -8.464445   2.492286   3.468518 H        1 UNL1     0.0622
     66 H         -3.821953   -0.342205   -4.831974 H        1 UNL1     0.0645
     67 H         -2.042116   0.652523   -4.246394 H        1 UNL1     0.0362
     68 H         -0.960605   -1.25139   -4.10002 H        1 UNL1     0.0741
     69 H         -0.254681   -2.426732   -1.831402 H        1 UNL1     0.0359
     70 H         -1.705314   -2.917969   -0.202334 H        1 UNL1     0.0600
     71 H         -1.077471   -1.320034   1.123232 H        1 UNL1     0.0348
     72 H         -3.481594   -0.986995   1.326511 H        1 UNL1     0.0602
     73 H         -5.000796   0.832993   -3.113198 H        1 UNL1     0.0628
     74 H         -5.848924   -2.035681   -2.397645 H        1 UNL1     0.1022
     75 H         -9.596521   5.380232   6.307959 H        1 UNL1     0.0279
     76 H         -8.664026   4.277402   7.239366 H        1 UNL1     0.0279
     77 H         -7.893686   5.56881   6.23232 H        1 UNL1     0.0279
     78 H         -8.60584   6.144164   3.888693 H        1 UNL1     0.1553
     79 H         -6.730223   5.534954   3.695951 H        1 UNL1     0.1484
     80 H         -4.102749   5.242352   0.966435 H        1 UNL1     0.0317
     81 H         -5.702175   5.912159   0.678132 H        1 UNL1     0.0317
     82 H         -5.669596   7.094358   2.890607 H        1 UNL1     0.0428
     83 H         -4.318996   7.534157   1.868765 H        1 UNL1     0.0428
     84 H         -3.542822   4.67861   4.925977 H        1 UNL1     0.0428
     85 H         -5.152857   5.303972   4.849596 H        1 UNL1     0.0428
     86 H         -4.758535   3.06699   3.817476 H        1 UNL1     0.0317
     87 H         -3.62651   3.672812   2.697722 H        1 UNL1     0.0317
     88 H         -3.730766   7.270743   5.254356 H        1 UNL1     0.0429
     89 H         -2.183312   7.166448   4.411299 H        1 UNL1     0.0429
     90 H         -2.717787   9.340711   3.794312 H        1 UNL1     0.0308
     91 H         -4.739932   8.988164   1.804973 H        1 UNL1     0.0233
     92 H         -2.975928   9.017032   1.554069 H        1 UNL1     0.0233
     93 H         -3.810947   7.494153   1.773583 H        1 UNL1     0.0233
     94 H         -5.265913   8.581059   4.946274 H        1 UNL1     0.0233
     95 H         -4.418144   10.135284   4.945968 H        1 UNL1     0.0233
     96 H         -5.47484   9.699494   3.583077 H        1 UNL1     0.0233
     97 H         -11.840543   1.053288   -2.612442 H        1 UNL1     0.0280
     98 H         -12.432914   2.691514   -2.662431 H        1 UNL1     0.0280
     99 H         -10.993746   2.23885   -3.623484 H        1 UNL1     0.0280
     100 H         -12.024773   5.015719   -0.779118 H        1 UNL1     0.2922
     101 H         -5.725574   -1.738194   3.288053 H        1 UNL1     0.0236
     102 H         -4.189273   -1.474412   4.202526 H        1 UNL1     0.0236
     103 H         -4.184661   -2.151161   2.603312 H        1 UNL1     0.0236
     104 H         -1.55339   0.577685   2.885082 H        1 UNL1     0.2098
     105 H         -1.194111   0.501477   -1.154733 H        1 UNL1     0.0234
     106 H         -1.043395   1.246774   0.461718 H        1 UNL1     0.0234
     107 H         0.0   0.0   0.0 H        1 UNL1     0.0234
     108 H         -3.77408   -1.515726   -1.488211 H        1 UNL1     0.2098
     109 H         -2.084295   2.224799   -2.716595 H        1 UNL1     0.0234
     110 H         -3.732504   1.595409   -2.400242 H        1 UNL1     0.0234
     111 H         -2.412364   1.14107   -1.380609 H        1 UNL1     0.0234
     112 H         1.066218   -2.12742   -1.867782 H        1 UNL1     0.0342
     113 H         2.203756   -1.341   -0.716353 H        1 UNL1     0.0342
     114 H         0.47104   -1.374115   -0.377873 H        1 UNL1     0.0342
     115 H         -1.247406   -4.316404   -2.598354 H        1 UNL1     0.0234
     116 H         -2.589228   -3.468046   -3.373329 H        1 UNL1     0.0234
     117 H         -0.927213   -3.400068   -3.995206 H        1 UNL1     0.0234
     118 H         -5.960588   2.188933   -3.019661 H        1 UNL1     0.0309
     119 H         -6.960461   1.413617   -4.287414 H        1 UNL1     0.0309
     120 H         -7.561168   2.751722   -3.333064 H        1 UNL1     0.0309
     121 H         -4.621636   -3.747689   -4.278548 H        1 UNL1     0.0524
     122 H         -5.592654   -2.667384   -3.270123 H        1 UNL1     0.0524
     123 H         -5.279868   -2.240625   -4.971236 H        1 UNL1     0.0524
@<TRIPOS>BOND
     1     1     2    1
     2     1    42    1
     3     2     3    2
     4     3     4    1
     5     4     5    2
     6     5     7    1
     7     6    75    1
     8     6    76    1
     9     6    77    1
    10     7     9   am
    11     9    10    1
    12    10    11    2
    13    10    43    1
    14    11    14    1
    15    11    15    1
    16    12    13   ar
    17    12    27   ar
    18    12    43    1
    19    13    14    1
    20    13    30   ar
    21    14    17    2
    22    15    16    1
    23    16    17    1
    24    16    18    1
    25    16    22    1
    26    18    19    1
    27    19    20    1
    28    20    21    1
    29    21    22    1
    30    23    24    1
    31    23    88    1
    32    23    89    1
    33    24    25    1
    34    24    26    1
    35    24    90    1
    36    25    91    1
    37    25    92    1
    38    25    93    1
    39    26    94    1
    40    26    95    1
    41    26    96    1
    42    27    28   ar
    43    28    29   ar
    44    29    30   ar
    45    29    31    1
    46    30    33    1
    47    31    32    1
    48    32    33    1
    49    32    35    1
    50    34    97    1
    51    34    98    1
    52    34    99    1
    53    35    61    1
    54    36    37    1
    55    36    60    1
    56    37    38    1
    57    38    39    1
    58    39    40    1
    59    40    41    1
    60    41    42    1
    61    45   100    1
    62    47   101    1
    63    47   102    1
    64    47   103    1
    65    48   104    1
    66    49   105    1
    67    49   106    1
    68    49   107    1
    69    50   108    1
    70    51    59    1
    71    52   109    1
    72    52   110    1
    73    52   111    1
    74    53    54    1
    75    54    55    2
    76    54    56    1
    77    56   112    1
    78    56   113    1
    79    56   114    1
    80    57   115    1
    81    57   116    1
    82    57   117    1
    83    58   118    1
    84    58   119    1
    85    58   120    1
    86    59   121    1
    87    59   122    1
    88    59   123    1
    89    60    61    2
    90     1    47    1
    91     1    62    1
    92     2    63    1
    93     3    64    1
    94     4    65    1
    95     5     6    1
    96     7     8    2
    97     9    78    1
    98    15    79    1
    99    18    80    1
   100    18    81    1
   101    19    82    1
   102    19    83    1
   103    20    23    1
   104    21    84    1
   105    21    85    1
   106    22    86    1
   107    22    87    1
   108    27    45    1
   109    28    34    1
   110    32    58    1
   111    33    46    2
   112    36    51    1
   113    36    66    1
   114    37    52    1
   115    37    67    1
   116    38    53    1
   117    38    68    1
   118    42    48    1
   119    42    72    1
   120    43    44    2
   121    60    73    1
   122    61    74    1
   123    39    69    1
   124    39    57    1
   125    40    70    1
   126    40    50    1
   127    41    71    1
   128    41    49    1
