@<TRIPOS>MOLECULE
*****
 123 128 0 0 0
SMALL
GASTEIGER

@<TRIPOS>ATOM
     1 C         -0.143167   4.037237   -1.284999 C.3        1 UNL1     0.0009
     2 C         -1.552176   4.911193   -2.114414 C.2        1 UNL1     -0.0787
     3 C         -2.156189   5.472491   -3.304438 C.2        1 UNL1     -0.0649
     4 C         -3.711397   6.119219   -3.47599 C.2        1 UNL1     -0.0542
     5 C         -4.732756   6.458111   -4.397432 C.2        1 UNL1     0.0115
     6 C         -5.061025   6.615648   -5.907646 C.3        1 UNL1     -0.0348
     7 C         -6.226967   6.679734   -3.854104 C.2        1 UNL1     0.2441
     8 O         -6.717953   7.788194   -3.690475 O.2        1 UNL1     -0.2702
     9 N         -7.021833   5.520592   -3.82709 N.am        1 UNL1     -0.2772
     10 C         -6.860962   4.855735   -2.633185 C.2        1 UNL1     0.1049
     11 C         -5.811292   4.058809   -2.54761 C.2        1 UNL1     0.0801
     12 C         -6.848164   5.202252   -0.155869 C.ar        1 UNL1     0.0753
     13 C         -5.597246   4.506787   -0.143896 C.ar        1 UNL1     0.0305
     14 C         -5.104357   3.798324   -1.32296 C.2        1 UNL1     0.0924
     15 N         -4.978381   3.621264   -3.507475 N.pl3        1 UNL1     -0.3170
     16 C         -4.106601   2.639578   -2.918793 C.3        1 UNL1     0.1275
     17 N         -4.029323   3.027749   -1.462402 N.2        1 UNL1     -0.2557
     18 C         -4.838001   1.301341   -2.962142 C.3        1 UNL1     0.0016
     19 C         -5.231861   1.008768   -4.401191 C.3        1 UNL1     0.0026
     20 N         -4.026713   0.973918   -5.218156 N.3        1 UNL1     -0.3018
     21 C         -3.222129   2.197159   -5.191773 C.3        1 UNL1     0.0026
     22 C         -2.83369   2.469521   -3.737527 C.3        1 UNL1     0.0016
     23 C         -4.254034   0.412405   -6.534846 C.3        1 UNL1     0.0012
     24 C         -5.465059   1.081356   -7.203934 C.3        1 UNL1     -0.0339
     25 C         -5.027237   2.132624   -8.236991 C.3        1 UNL1     -0.0615
     26 C         -6.364587   0.027343   -7.825774 C.3        1 UNL1     -0.0615
     27 C         -7.368265   5.772105   1.003821 C.ar        1 UNL1     0.1347
     28 C         -6.750206   5.677745   2.237981 C.ar        1 UNL1     0.0342
     29 C         -5.496301   5.030898   2.216137 C.ar        1 UNL1     0.1435
     30 C         -4.945716   4.486751   1.055112 C.ar        1 UNL1     0.0774
     31 O         -4.821673   4.76279   3.355436 O.3        1 UNL1     -0.4436
     32 C         -3.894747   3.728187   2.993113 C.3        1 UNL1     0.3143
     33 C         -3.714077   3.865081   1.494837 C.2        1 UNL1     0.2504
     34 C         -7.363765   6.041261   3.561423 C.3        1 UNL1     -0.0327
     35 O         -2.636363   4.053236   3.596492 O.2        1 UNL1     -0.4528
     36 C         -0.918664   0.736469   4.272257 C.3        1 UNL1     0.0854
     37 C         -0.550227   -0.418488   3.26337 C.3        1 UNL1     0.0236
     38 C         0.995362   -0.84615   3.260829 C.3        1 UNL1     0.1131
     39 C         2.116072   0.26086   3.116583 C.3        1 UNL1     0.0200
     40 C         1.949181   1.492078   2.00362 C.3        1 UNL1     0.0661
     41 C         1.552929   1.303367   0.365028 C.3        1 UNL1     0.0091
     42 C         0.606754   2.396695   -0.764037 C.3        1 UNL1     0.0661
     43 C         -7.616626   5.219484   -1.425289 C.2        1 UNL1     0.2131
     44 O         -8.81726   5.414229   -1.482651 O.2        1 UNL1     -0.2851
     45 O         -8.569003   6.470824   0.896781 O.3        1 UNL1     -0.5056
     46 O         -2.759393   3.552008   0.819251 O.2        1 UNL1     -0.2836
     47 C         1.054776   5.005957   -1.093954 C.3        1 UNL1     -0.0566
     48 O         1.600876   2.314305   -1.86133 O.3        1 UNL1     -0.3909
     49 C         1.044907   -0.104075   0.14477 C.3        1 UNL1     -0.0577
     50 O         1.22207   2.571248   2.555369 O.3        1 UNL1     -0.3910
     51 O         0.16853   1.36471   4.913158 O.3        1 UNL1     -0.3753
     52 C         -1.390916   -0.332017   1.947805 C.3        1 UNL1     -0.0564
     53 O         1.255512   -2.153879   2.571996 O.3        1 UNL1     -0.4608
     54 C         2.461867   -2.55826   2.062962 C.2        1 UNL1     0.3042
     55 O         2.80861   -2.568888   0.882499 O.2        1 UNL1     -0.2512
     56 C         3.450525   -2.971989   3.115624 C.3        1 UNL1     0.0332
     57 C         2.603155   0.64887   4.589802 C.3        1 UNL1     -0.0567
     58 C         -4.60088   2.38472   3.289766 C.3        1 UNL1     0.0210
     59 C         -0.161513   2.048489   6.121207 C.3        1 UNL1     0.0372
     60 C         -1.767045   1.819911   3.705191 C.2        1 UNL1     -0.0208
     61 C         -1.66683   3.145027   3.818193 C.2        1 UNL1     0.0882
     62 H         -0.710899   4.052792   -0.346836 H        1 UNL1     0.0365
     63 H         -2.196053   5.118562   -1.257156 H        1 UNL1     0.0576
     64 H         -1.686878   5.373395   -4.285782 H        1 UNL1     0.0615
     65 H         -4.054341   6.249959   -2.446049 H        1 UNL1     0.0622
     66 H         -1.531069   0.245791   5.041829 H        1 UNL1     0.0645
     67 H         -1.025393   -1.315344   3.69745 H        1 UNL1     0.0362
     68 H         1.084718   -1.219103   4.292548 H        1 UNL1     0.0741
     69 H         3.037353   -0.21476   2.807656 H        1 UNL1     0.0359
     70 H         2.994055   1.854852   1.962469 H        1 UNL1     0.0600
     71 H         2.568203   1.238695   -0.073142 H        1 UNL1     0.0348
     72 H         0.925913   3.031127   0.075575 H        1 UNL1     0.0602
     73 H         -2.622007   1.389685   3.245634 H        1 UNL1     0.0628
     74 H         -0.798076   3.665471   4.222719 H        1 UNL1     0.1022
     75 H         -4.262343   7.20143   -6.423396 H        1 UNL1     0.0279
     76 H         -5.096317   5.700519   -6.49447 H        1 UNL1     0.0279
     77 H         -5.943403   7.247147   -6.087424 H        1 UNL1     0.0279
     78 H         -6.731386   4.889276   -4.570837 H        1 UNL1     0.1553
     79 H         -5.200445   3.63419   -4.48597 H        1 UNL1     0.1484
     80 H         -4.180164   0.521192   -2.560415 H        1 UNL1     0.0317
     81 H         -5.727579   1.320743   -2.323451 H        1 UNL1     0.0317
     82 H         -5.949271   1.748764   -4.785433 H        1 UNL1     0.0428
     83 H         -5.753494   0.051225   -4.408954 H        1 UNL1     0.0428
     84 H         -2.283454   2.116857   -5.748775 H        1 UNL1     0.0428
     85 H         -3.743282   3.039558   -5.667252 H        1 UNL1     0.0428
     86 H         -2.140368   3.289353   -3.771699 H        1 UNL1     0.0317
     87 H         -2.228225   1.641093   -3.349952 H        1 UNL1     0.0317
     88 H         -3.364222   0.607483   -7.147606 H        1 UNL1     0.0429
     89 H         -4.379433   -0.677004   -6.487548 H        1 UNL1     0.0429
     90 H         -6.071004   1.577261   -6.436391 H        1 UNL1     0.0308
     91 H         -4.176861   1.77945   -8.827948 H        1 UNL1     0.0233
     92 H         -5.852259   2.381126   -8.908701 H        1 UNL1     0.0233
     93 H         -4.719565   3.075441   -7.768729 H        1 UNL1     0.0233
     94 H         -6.986492   0.475473   -8.608238 H        1 UNL1     0.0233
     95 H         -5.757738   -0.757603   -8.285725 H        1 UNL1     0.0233
     96 H         -7.022301   -0.426744   -7.079324 H        1 UNL1     0.0233
     97 H         -7.488524   7.114345   3.671681 H        1 UNL1     0.0280
     98 H         -8.364675   5.607917   3.686513 H        1 UNL1     0.0280
     99 H         -6.717047   5.682758   4.378935 H        1 UNL1     0.0280
     100 H         -9.317022   5.935619   0.697672 H        1 UNL1     0.2922
     101 H         1.11583   5.313837   -0.050337 H        1 UNL1     0.0236
     102 H         1.028438   5.859003   -1.771156 H        1 UNL1     0.0236
     103 H         2.020987   4.514996   -1.297882 H        1 UNL1     0.0236
     104 H         2.250626   3.031414   -1.725132 H        1 UNL1     0.2098
     105 H         1.454909   -0.597318   -0.732967 H        1 UNL1     0.0234
     106 H         1.120082   -0.756659   1.014488 H        1 UNL1     0.0234
     107 H         -0.0   0.0   0.0 H        1 UNL1     0.0234
     108 H         1.184717   3.272842   1.877034 H        1 UNL1     0.2098
     109 H         -1.240738   0.620132   1.420007 H        1 UNL1     0.0234
     110 H         -1.203294   -1.164892   1.261612 H        1 UNL1     0.0234
     111 H         -2.468362   -0.392325   2.151324 H        1 UNL1     0.0234
     112 H         4.39513   -3.262007   2.645566 H        1 UNL1     0.0342
     113 H         3.607423   -2.19208   3.859243 H        1 UNL1     0.0342
     114 H         3.049155   -3.852369   3.6362 H        1 UNL1     0.0342
     115 H         3.673477   0.895852   4.614267 H        1 UNL1     0.0234
     116 H         2.062127   1.489199   5.029331 H        1 UNL1     0.0234
     117 H         2.562312   -0.192708   5.302557 H        1 UNL1     0.0234
     118 H         -4.360683   1.614748   2.535807 H        1 UNL1     0.0309
     119 H         -4.376263   1.992234   4.286613 H        1 UNL1     0.0309
     120 H         -5.692179   2.461933   3.233092 H        1 UNL1     0.0309
     121 H         0.001222   1.35628   6.946872 H        1 UNL1     0.0524
     122 H         0.481515   2.927636   6.293408 H        1 UNL1     0.0524
     123 H         -1.199155   2.369338   6.100031 H        1 UNL1     0.0524
@<TRIPOS>BOND
     1     1     2    1
     2     1    42    1
     3     2     3    2
     4     3     4    1
     5     4     5    2
     6     5     7    1
     7     6    75    1
     8     6    76    1
     9     6    77    1
    10     7     9   am
    11     9    10    1
    12    10    11    2
    13    10    43    1
    14    11    14    1
    15    11    15    1
    16    12    13   ar
    17    12    27   ar
    18    12    43    1
    19    13    14    1
    20    13    30   ar
    21    14    17    2
    22    15    16    1
    23    16    17    1
    24    16    18    1
    25    16    22    1
    26    18    19    1
    27    19    20    1
    28    20    21    1
    29    21    22    1
    30    23    24    1
    31    23    88    1
    32    23    89    1
    33    24    25    1
    34    24    26    1
    35    24    90    1
    36    25    91    1
    37    25    92    1
    38    25    93    1
    39    26    94    1
    40    26    95    1
    41    26    96    1
    42    27    28   ar
    43    28    29   ar
    44    29    30   ar
    45    29    31    1
    46    30    33    1
    47    31    32    1
    48    32    33    1
    49    32    35    1
    50    34    97    1
    51    34    98    1
    52    34    99    1
    53    35    61    1
    54    36    37    1
    55    36    60    1
    56    37    38    1
    57    38    39    1
    58    39    40    1
    59    40    41    1
    60    41    42    1
    61    45   100    1
    62    47   101    1
    63    47   102    1
    64    47   103    1
    65    48   104    1
    66    49   105    1
    67    49   106    1
    68    49   107    1
    69    50   108    1
    70    51    59    1
    71    52   109    1
    72    52   110    1
    73    52   111    1
    74    53    54    1
    75    54    55    2
    76    54    56    1
    77    56   112    1
    78    56   113    1
    79    56   114    1
    80    57   115    1
    81    57   116    1
    82    57   117    1
    83    58   118    1
    84    58   119    1
    85    58   120    1
    86    59   121    1
    87    59   122    1
    88    59   123    1
    89    60    61    2
    90     1    47    1
    91     1    62    1
    92     2    63    1
    93     3    64    1
    94     4    65    1
    95     5     6    1
    96     7     8    2
    97     9    78    1
    98    15    79    1
    99    18    80    1
   100    18    81    1
   101    19    82    1
   102    19    83    1
   103    20    23    1
   104    21    84    1
   105    21    85    1
   106    22    86    1
   107    22    87    1
   108    27    45    1
   109    28    34    1
   110    32    58    1
   111    33    46    2
   112    36    51    1
   113    36    66    1
   114    37    52    1
   115    37    67    1
   116    38    53    1
   117    38    68    1
   118    42    48    1
   119    42    72    1
   120    43    44    2
   121    60    73    1
   122    61    74    1
   123    39    69    1
   124    39    57    1
   125    40    70    1
   126    40    50    1
   127    41    71    1
   128    41    49    1
