@<TRIPOS>MOLECULE
*****
 123 128 0 0 0
SMALL
GASTEIGER

@<TRIPOS>ATOM
     1 C         -1.192794   -3.999512   -1.215691 C.3        1 UNL1     0.0009
     2 C         -0.198502   -5.27048   -2.128412 C.2        1 UNL1     -0.0787
     3 C         0.069686   -6.028034   -3.332668 C.2        1 UNL1     -0.0649
     4 C         1.349986   -7.096096   -3.626666 C.2        1 UNL1     -0.0542
     5 C         2.111472   -7.74816   -4.627679 C.2        1 UNL1     0.0115
     6 C         2.188001   -8.05364   -6.148912 C.3        1 UNL1     -0.0348
     7 C         3.542494   -8.36261   -4.238297 C.2        1 UNL1     0.2441
     8 O         3.724102   -9.55725   -4.047562 O.2        1 UNL1     -0.2702
     9 N         4.62389   -7.47673   -4.386456 N.am        1 UNL1     -0.2772
     10 C         4.806925   -6.74562   -3.23524 C.2        1 UNL1     0.1049
     11 C         4.038732   -5.680688   -3.093742 C.2        1 UNL1     0.0801
     12 C         5.014588   -6.973287   -0.752827 C.ar        1 UNL1     0.0753
     13 C         4.017252   -5.95141   -0.65436 C.ar        1 UNL1     0.0305
     14 C         3.593653   -5.180683   -1.821234 C.2        1 UNL1     0.0924
     15 N         3.244228   -5.064058   -3.985403 N.pl3        1 UNL1     -0.3170
     16 C         2.760744   -3.85219   -3.378879 C.3        1 UNL1     0.1275
     17 N         2.765326   -4.142938   -1.897944 N.2        1 UNL1     -0.2557
     18 C         3.822306   -2.779581   -3.603145 C.3        1 UNL1     0.0016
     19 C         4.094989   -2.669589   -5.094834 C.3        1 UNL1     0.0026
     20 N         2.852689   -2.327251   -5.773453 N.3        1 UNL1     -0.3018
     21 C         1.751098   -3.269608   -5.566498 C.3        1 UNL1     0.0026
     22 C         1.491111   -3.361158   -4.061865 C.3        1 UNL1     0.0016
     23 C         3.056809   -1.907365   -7.145559 C.3        1 UNL1     0.0012
     24 C         3.61802   -3.065554   -7.985437 C.3        1 UNL1     -0.0339
     25 C         4.422276   -2.548777   -9.189667 C.3        1 UNL1     -0.0615
     26 C         4.450563   -3.987141   -7.111178 C.3        1 UNL1     -0.0615
     27 C         5.500008   -7.619739   0.381451 C.ar        1 UNL1     0.1347
     28 C         5.094797   -7.303726   1.66597 C.ar        1 UNL1     0.0342
     29 C         4.076846   -6.32895   1.734898 C.ar        1 UNL1     0.1435
     30 C         3.555105   -5.698524   0.604602 C.ar        1 UNL1     0.0774
     31 O         3.653768   -5.834282   2.91867 O.3        1 UNL1     -0.4436
     32 C         3.011185   -4.594705   2.584889 C.3        1 UNL1     0.3143
     33 C         2.610226   -4.735434   1.130365 C.2        1 UNL1     0.2504
     34 C         5.747226   -7.772389   2.936715 C.3        1 UNL1     -0.0327
     35 O         1.799598   -4.524321   3.346699 O.2        1 UNL1     -0.4528
     36 C         1.168003   -0.831767   3.958435 C.3        1 UNL1     0.0854
     37 C         1.008239   0.338279   2.912973 C.3        1 UNL1     0.0236
     38 C         -0.345739   1.186672   3.049781 C.3        1 UNL1     0.1131
     39 C         -1.737988   0.438481   3.113985 C.3        1 UNL1     0.0200
     40 C         -2.061767   -0.833619   2.084729 C.3        1 UNL1     0.0661
     41 C         -1.840996   -0.831913   0.402806 C.3        1 UNL1     0.0091
     42 C         -1.386448   -2.193813   -0.739131 C.3        1 UNL1     0.0661
     43 C         5.579904   -7.259545   -2.094741 C.2        1 UNL1     0.2131
     44 O         6.662187   -7.789305   -2.270114 O.2        1 UNL1     -0.2851
     45 O         6.436533   -8.634351   0.194577 O.3        1 UNL1     -0.5056
     46 O         1.70152   -4.191924   0.54325 O.2        1 UNL1     -0.2836
     47 C         -2.577576   -4.579672   -0.821006 C.3        1 UNL1     -0.0566
     48 O         -2.450333   -1.877234   -1.722513 O.3        1 UNL1     -0.3909
     49 C         -0.995574   0.363224   0.022803 C.3        1 UNL1     -0.0577
     50 O         -1.597684   -2.051465   2.631723 O.3        1 UNL1     -0.3910
     51 O         0.040305   -1.098915   4.761156 O.3        1 UNL1     -0.3753
     52 C         1.617295   -0.03669   1.522506 C.3        1 UNL1     -0.0564
     53 O         -0.319276   2.485334   2.298049 O.3        1 UNL1     -0.4608
     54 C         0.587935   3.494936   2.486739 C.2        1 UNL1     0.3042
     55 O         0.378013   4.607161   2.969156 O.2        1 UNL1     -0.2512
     56 C         1.98975   3.125138   2.093194 C.3        1 UNL1     0.0332
     57 C         -2.121523   0.264917   4.657018 C.3        1 UNL1     -0.0567
     58 C         4.093471   -3.496097   2.699977 C.3        1 UNL1     0.0210
     59 C         0.305573   -1.175388   6.161031 C.3        1 UNL1     0.0372
     60 C         1.603787   -2.133596   3.383548 C.2        1 UNL1     -0.0208
     61 C         1.15589   -3.370002   3.605881 C.2        1 UNL1     0.0882
     62 H         -0.536791   -4.137475   -0.347741 H        1 UNL1     0.0365
     63 H         0.466606   -5.617104   -1.334716 H        1 UNL1     0.0576
     64 H         -0.474954   -5.839736   -4.260579 H        1 UNL1     0.0615
     65 H         1.771705   -7.276857   -2.634214 H        1 UNL1     0.0622
     66 H         1.985212   -0.504297   4.616447 H        1 UNL1     0.0645
     67 H         1.764423   1.080195   3.223305 H        1 UNL1     0.0362
     68 H         -0.196079   1.611249   4.054201 H        1 UNL1     0.0741
     69 H         -2.52314   1.143124   2.874356 H        1 UNL1     0.0359
     70 H         -3.162606   -0.886181   2.186958 H        1 UNL1     0.0600
     71 H         -2.845914   -0.499521   0.076292 H        1 UNL1     0.0348
     72 H         -1.759036   -2.676866   0.17583 H        1 UNL1     0.0602
     73 H         2.478598   -1.982843   2.801116 H        1 UNL1     0.0628
     74 H         0.23595   -3.605502   4.142061 H        1 UNL1     0.1022
     75 H         1.167042   -8.231545   -6.564876 H        1 UNL1     0.0279
     76 H         2.564641   -7.256183   -6.785522 H        1 UNL1     0.0279
     77 H         2.680632   -9.012793   -6.365803 H        1 UNL1     0.0279
     78 H         4.427234   -6.819697   -5.138594 H        1 UNL1     0.1553
     79 H         3.327419   -5.179246   -4.978753 H        1 UNL1     0.1484
     80 H         3.46296   -1.829118   -3.190523 H        1 UNL1     0.0317
     81 H         4.745603   -3.024771   -3.067368 H        1 UNL1     0.0317
     82 H         4.52442   -3.597787   -5.499741 H        1 UNL1     0.0428
     83 H         4.855908   -1.900681   -5.232068 H        1 UNL1     0.0428
     84 H         0.808313   -2.948817   -6.020439 H        1 UNL1     0.0428
     85 H         1.95363   -4.243896   -6.032394 H        1 UNL1     0.0428
     86 H         0.599452   -3.951101   -3.957467 H        1 UNL1     0.0317
     87 H         1.193206   -2.379889   -3.672688 H        1 UNL1     0.0317
     88 H         2.084029   -1.613627   -7.561146 H        1 UNL1     0.0429
     89 H         3.709122   -1.026294   -7.200108 H        1 UNL1     0.0429
     90 H         2.786266   -3.675771   -8.356966 H        1 UNL1     0.0308
     91 H         4.330214   -3.221464   -10.047641 H        1 UNL1     0.0233
     92 H         4.085996   -1.550379   -9.479023 H        1 UNL1     0.0233
     93 H         5.492886   -2.458927   -8.969312 H        1 UNL1     0.0233
     94 H         4.002508   -4.986243   -7.08153 H        1 UNL1     0.0233
     95 H         5.459282   -4.082127   -7.522792 H        1 UNL1     0.0233
     96 H         4.521242   -3.609589   -6.087251 H        1 UNL1     0.0233
     97 H         5.019226   -7.987104   3.713338 H        1 UNL1     0.0280
     98 H         6.315242   -8.700698   2.792299 H        1 UNL1     0.0280
     99 H         6.430847   -6.992381   3.310004 H        1 UNL1     0.0280
     100 H         7.313246   -8.410404   0.453121 H        1 UNL1     0.2922
     101 H         -2.736206   -4.456178   0.250088 H        1 UNL1     0.0236
     102 H         -2.71583   -5.612659   -1.138508 H        1 UNL1     0.0236
     103 H         -3.407592   -4.027323   -1.292362 H        1 UNL1     0.0236
     104 H         -3.160106   -1.40304   -1.246769 H        1 UNL1     0.2098
     105 H         -1.220406   0.779391   -0.956006 H        1 UNL1     0.0234
     106 H         -0.963263   1.154677   0.771458 H        1 UNL1     0.0234
     107 H         0.0   0.0   0.0 H        1 UNL1     0.0234
     108 H         -1.017345   -2.466519   1.964862 H        1 UNL1     0.2098
     109 H         1.630964   -1.122493   1.353523 H        1 UNL1     0.0234
     110 H         1.114336   0.458212   0.684742 H        1 UNL1     0.0234
     111 H         2.662013   0.290649   1.436714 H        1 UNL1     0.0234
     112 H         2.677527   3.931804   2.364487 H        1 UNL1     0.0342
     113 H         2.302984   2.179872   2.533874 H        1 UNL1     0.0342
     114 H         2.020316   3.009563   1.001007 H        1 UNL1     0.0342
     115 H         -1.458305   -0.448784   5.164917 H        1 UNL1     0.0234
     116 H         -2.10037   1.195803   5.227151 H        1 UNL1     0.0234
     117 H         -3.105582   -0.20898   4.815108 H        1 UNL1     0.0234
     118 H         4.865822   -3.751563   3.446448 H        1 UNL1     0.0309
     119 H         4.578981   -3.26963   1.745412 H        1 UNL1     0.0309
     120 H         3.690725   -2.546201   3.068215 H        1 UNL1     0.0309
     121 H         -0.113005   -2.113237   6.525158 H        1 UNL1     0.0524
     122 H         1.385861   -1.185976   6.382171 H        1 UNL1     0.0524
     123 H         -0.151651   -0.335629   6.676634 H        1 UNL1     0.0524
@<TRIPOS>BOND
     1     1     2    1
     2     1    42    1
     3     2     3    2
     4     3     4    1
     5     4     5    2
     6     5     7    1
     7     6    75    1
     8     6    76    1
     9     6    77    1
    10     7     9   am
    11     9    10    1
    12    10    11    2
    13    10    43    1
    14    11    14    1
    15    11    15    1
    16    12    13   ar
    17    12    27   ar
    18    12    43    1
    19    13    14    1
    20    13    30   ar
    21    14    17    2
    22    15    16    1
    23    16    17    1
    24    16    18    1
    25    16    22    1
    26    18    19    1
    27    19    20    1
    28    20    21    1
    29    21    22    1
    30    23    24    1
    31    23    88    1
    32    23    89    1
    33    24    25    1
    34    24    26    1
    35    24    90    1
    36    25    91    1
    37    25    92    1
    38    25    93    1
    39    26    94    1
    40    26    95    1
    41    26    96    1
    42    27    28   ar
    43    28    29   ar
    44    29    30   ar
    45    29    31    1
    46    30    33    1
    47    31    32    1
    48    32    33    1
    49    32    35    1
    50    34    97    1
    51    34    98    1
    52    34    99    1
    53    35    61    1
    54    36    37    1
    55    36    60    1
    56    37    38    1
    57    38    39    1
    58    39    40    1
    59    40    41    1
    60    41    42    1
    61    45   100    1
    62    47   101    1
    63    47   102    1
    64    47   103    1
    65    48   104    1
    66    49   105    1
    67    49   106    1
    68    49   107    1
    69    50   108    1
    70    51    59    1
    71    52   109    1
    72    52   110    1
    73    52   111    1
    74    53    54    1
    75    54    55    2
    76    54    56    1
    77    56   112    1
    78    56   113    1
    79    56   114    1
    80    57   115    1
    81    57   116    1
    82    57   117    1
    83    58   118    1
    84    58   119    1
    85    58   120    1
    86    59   121    1
    87    59   122    1
    88    59   123    1
    89    60    61    2
    90     1    47    1
    91     1    62    1
    92     2    63    1
    93     3    64    1
    94     4    65    1
    95     5     6    1
    96     7     8    2
    97     9    78    1
    98    15    79    1
    99    18    80    1
   100    18    81    1
   101    19    82    1
   102    19    83    1
   103    20    23    1
   104    21    84    1
   105    21    85    1
   106    22    86    1
   107    22    87    1
   108    27    45    1
   109    28    34    1
   110    32    58    1
   111    33    46    2
   112    36    51    1
   113    36    66    1
   114    37    52    1
   115    37    67    1
   116    38    53    1
   117    38    68    1
   118    42    48    1
   119    42    72    1
   120    43    44    2
   121    60    73    1
   122    61    74    1
   123    39    69    1
   124    39    57    1
   125    40    70    1
   126    40    50    1
   127    41    71    1
   128    41    49    1
