@<TRIPOS>MOLECULE
*****
 123 128 0 0 0
SMALL
GASTEIGER

@<TRIPOS>ATOM
     1 C         5.126042   1.834892   0.596773 C.3        1 UNL1     0.0009
     2 C         6.563291   2.67234   -0.221782 C.2        1 UNL1     -0.0787
     3 C         7.858377   2.60156   -0.865047 C.2        1 UNL1     -0.0649
     4 C         8.72733   3.857475   -1.59577 C.2        1 UNL1     -0.0542
     5 C         9.758647   4.174951   -2.513741 C.2        1 UNL1     0.0115
     6 C         10.912935   3.575838   -3.36345 C.3        1 UNL1     -0.0348
     7 C         9.838714   5.664185   -3.107677 C.2        1 UNL1     0.2441
     8 O         10.641157   6.497201   -2.709311 O.2        1 UNL1     -0.2702
     9 N         9.105988   5.866873   -4.290124 N.am        1 UNL1     -0.2772
     10 C         7.811279   6.22874   -3.996692 C.2        1 UNL1     0.1049
     11 C         6.97762   5.240545   -3.727054 C.2        1 UNL1     0.0801
     12 C         6.459875   7.801796   -2.597929 C.ar        1 UNL1     0.0753
     13 C         5.71289   6.657464   -2.172339 C.ar        1 UNL1     0.0305
     14 C         5.864253   5.358914   -2.824957 C.2        1 UNL1     0.0924
     15 N         7.126398   3.915147   -3.893532 N.pl3        1 UNL1     -0.3170
     16 C         5.861859   3.291563   -3.606586 C.3        1 UNL1     0.1275
     17 N         5.191379   4.228121   -2.631374 N.2        1 UNL1     -0.2557
     18 C         5.030797   3.345294   -4.884925 C.3        1 UNL1     0.0016
     19 C         5.81761   2.683019   -6.004705 C.3        1 UNL1     0.0026
     20 N         6.105   1.306963   -5.62404 N.3        1 UNL1     -0.3018
     21 C         6.848814   1.150549   -4.372383 C.3        1 UNL1     0.0026
     22 C         6.038167   1.818893   -3.260599 C.3        1 UNL1     0.0016
     23 C         6.583578   0.503709   -6.731465 C.3        1 UNL1     0.0012
     24 C         5.450411   0.241544   -7.735933 C.3        1 UNL1     -0.0339
     25 C         5.479121   1.253787   -8.892911 C.3        1 UNL1     -0.0615
     26 C         5.523876   -1.188463   -8.242355 C.3        1 UNL1     -0.0615
     27 C         6.223367   9.061615   -2.052916 C.ar        1 UNL1     0.1347
     28 C         5.242737   9.307135   -1.108388 C.ar        1 UNL1     0.0342
     29 C         4.553114   8.157175   -0.668868 C.ar        1 UNL1     0.1435
     30 C         4.804042   6.883025   -1.17955 C.ar        1 UNL1     0.0774
     31 O         3.49522   8.246118   0.16657 O.3        1 UNL1     -0.4436
     32 C         2.797973   7.002007   0.002539 C.3        1 UNL1     0.3143
     33 C         3.837903   6.030774   -0.518483 C.2        1 UNL1     0.2504
     34 C         4.764165   10.661871   -0.66594 C.3        1 UNL1     -0.0327
     35 O         2.421634   6.549158   1.308888 O.2        1 UNL1     -0.4528
     36 C         -0.779358   4.56375   0.839956 C.3        1 UNL1     0.0854
     37 C         -1.046401   3.304843   -0.071834 C.3        1 UNL1     0.0236
     38 C         -1.638666   2.027604   0.696038 C.3        1 UNL1     0.1131
     39 C         -0.927026   1.499602   2.006402 C.3        1 UNL1     0.0200
     40 C         0.735468   1.382747   2.076365 C.3        1 UNL1     0.0661
     41 C         1.728903   0.639609   0.919453 C.3        1 UNL1     0.0091
     42 C         3.439646   1.03614   0.388865 C.3        1 UNL1     0.0661
     43 C         7.43327   7.61916   -3.703101 C.2        1 UNL1     0.2131
     44 O         7.830065   8.529472   -4.407817 O.2        1 UNL1     -0.2851
     45 O         7.025369   10.114162   -2.489237 O.3        1 UNL1     -0.5056
     46 O         3.872704   4.826749   -0.396145 O.2        1 UNL1     -0.2836
     47 C         5.504168   1.401556   2.038724 C.3        1 UNL1     -0.0566
     48 O         3.911408   -0.367504   0.468495 O.3        1 UNL1     -0.3909
     49 C         0.921187   0.401864   -0.336957 C.3        1 UNL1     -0.0577
     50 O         1.307069   2.607895   2.488685 O.3        1 UNL1     -0.3910
     51 O         -0.924897   4.361453   2.227517 O.3        1 UNL1     -0.3753
     52 C         0.021108   3.171308   -1.206534 C.3        1 UNL1     -0.0564
     53 O         -2.206769   0.985084   -0.221969 O.3        1 UNL1     -0.4608
     54 C         -2.424203   -0.328082   0.10399 C.2        1 UNL1     0.3042
     55 O         -1.829915   -1.313805   -0.330763 O.2        1 UNL1     -0.2512
     56 C         -3.480095   -0.519911   1.155183 C.3        1 UNL1     0.0332
     57 C         -1.682084   2.146391   3.259289 C.3        1 UNL1     -0.0567
     58 C         1.738148   7.236476   -1.098972 C.3        1 UNL1     0.0210
     59 C         -1.302651   5.522326   2.966124 C.3        1 UNL1     0.0372
     60 C         0.542281   5.217637   0.637807 C.2        1 UNL1     -0.0208
     61 C         1.431774   5.662158   1.526597 C.2        1 UNL1     0.0882
     62 H         4.631421   2.809929   0.682584 H        1 UNL1     0.0365
     63 H         6.276733   3.720512   -0.113668 H        1 UNL1     0.0576
     64 H         8.336819   1.644532   -1.084814 H        1 UNL1     0.0615
     65 H         8.218129   4.761598   -1.251155 H        1 UNL1     0.0622
     66 H         -1.531358   5.299496   0.521805 H        1 UNL1     0.0645
     67 H         -1.906211   3.603665   -0.696328 H        1 UNL1     0.0362
     68 H         -2.599389   2.445235   1.033851 H        1 UNL1     0.0741
     69 H         -1.244165   0.481433   2.188509 H        1 UNL1     0.0359
     70 H         0.843095   0.717845   2.954648 H        1 UNL1     0.0600
     71 H         1.7828   -0.383829   1.339724 H        1 UNL1     0.0348
     72 H         3.307748   1.51503   1.369979 H        1 UNL1     0.0602
     73 H         0.67516   5.424715   -0.39501 H        1 UNL1     0.0628
     74 H         1.398856   5.443167   2.594396 H        1 UNL1     0.1022
     75 H         10.974093   2.470382   -3.217643 H        1 UNL1     0.0279
     76 H         10.817118   3.664756   -4.443257 H        1 UNL1     0.0279
     77 H         11.906517   3.895554   -3.016638 H        1 UNL1     0.0279
     78 H         9.06865   4.999953   -4.822227 H        1 UNL1     0.1553
     79 H         7.809989   3.503485   -4.501948 H        1 UNL1     0.1484
     80 H         4.074981   2.836224   -4.711637 H        1 UNL1     0.0317
     81 H         4.790877   4.37995   -5.152464 H        1 UNL1     0.0317
     82 H         6.743069   3.232321   -6.232093 H        1 UNL1     0.0428
     83 H         5.207587   2.733967   -6.907105 H        1 UNL1     0.0428
     84 H         6.981907   0.107555   -4.068638 H        1 UNL1     0.0428
     85 H         7.873968   1.53726   -4.455024 H        1 UNL1     0.0428
     86 H         6.542634   1.570742   -2.345219 H        1 UNL1     0.0317
     87 H         5.06519   1.323322   -3.156572 H        1 UNL1     0.0317
     88 H         7.379276   1.06326   -7.240448 H        1 UNL1     0.0429
     89 H         7.026397   -0.436992   -6.37966 H        1 UNL1     0.0429
     90 H         4.486489   0.327613   -7.220511 H        1 UNL1     0.0308
     91 H         6.439324   1.231707   -9.416956 H        1 UNL1     0.0233
     92 H         4.676812   1.048756   -9.605561 H        1 UNL1     0.0233
     93 H         5.327504   2.284432   -8.549955 H        1 UNL1     0.0233
     94 H         4.844992   -1.323869   -9.091247 H        1 UNL1     0.0233
     95 H         6.538593   -1.412491   -8.583123 H        1 UNL1     0.0233
     96 H         5.247857   -1.902911   -7.461749 H        1 UNL1     0.0233
     97 H         3.958757   10.592697   0.059155 H        1 UNL1     0.0280
     98 H         5.558287   11.242456   -0.178551 H        1 UNL1     0.0280
     99 H         4.396196   11.226334   -1.538337 H        1 UNL1     0.0280
     100 H         6.551049   10.858921   -2.814778 H        1 UNL1     0.2922
     101 H         4.640237   0.949147   2.525146 H        1 UNL1     0.0236
     102 H         5.930333   2.21026   2.631485 H        1 UNL1     0.0236
     103 H         6.274304   0.612228   2.045418 H        1 UNL1     0.0236
     104 H         4.317448   -0.492727   1.348507 H        1 UNL1     0.2098
     105 H         0.703035   1.301139   -0.907506 H        1 UNL1     0.0234
     106 H         1.316005   -0.374636   -0.992008 H        1 UNL1     0.0234
     107 H         0.0   -0.0   0.0 H        1 UNL1     0.0234
     108 H         1.10999   3.267613   1.796082 H        1 UNL1     0.2098
     109 H         1.040836   3.072866   -0.808823 H        1 UNL1     0.0234
     110 H         -0.184614   2.345415   -1.895971 H        1 UNL1     0.0234
     111 H         0.038419   4.059243   -1.852458 H        1 UNL1     0.0234
     112 H         -3.597985   -1.585511   1.374149 H        1 UNL1     0.0342
     113 H         -3.262911   0.043485   2.061416 H        1 UNL1     0.0342
     114 H         -4.434233   -0.150875   0.754436 H        1 UNL1     0.0342
     115 H         -2.747689   1.879218   3.276387 H        1 UNL1     0.0234
     116 H         -1.257979   1.867065   4.225809 H        1 UNL1     0.0234
     117 H         -1.739166   3.247741   3.217921 H        1 UNL1     0.0234
     118 H         0.821449   7.704476   -0.699416 H        1 UNL1     0.0309
     119 H         2.112156   7.837161   -1.934135 H        1 UNL1     0.0309
     120 H         1.373653   6.301104   -1.537525 H        1 UNL1     0.0309
     121 H         -0.508946   6.259802   2.849858 H        1 UNL1     0.0524
     122 H         -2.234184   5.97462   2.587027 H        1 UNL1     0.0524
     123 H         -1.432896   5.274132   4.015661 H        1 UNL1     0.0524
@<TRIPOS>BOND
     1     1     2    1
     2     1    42    1
     3     2     3    2
     4     3     4    1
     5     4     5    2
     6     5     7    1
     7     6    75    1
     8     6    76    1
     9     6    77    1
    10     7     9   am
    11     9    10    1
    12    10    11    2
    13    10    43    1
    14    11    14    1
    15    11    15    1
    16    12    13   ar
    17    12    27   ar
    18    12    43    1
    19    13    14    1
    20    13    30   ar
    21    14    17    2
    22    15    16    1
    23    16    17    1
    24    16    18    1
    25    16    22    1
    26    18    19    1
    27    19    20    1
    28    20    21    1
    29    21    22    1
    30    23    24    1
    31    23    88    1
    32    23    89    1
    33    24    25    1
    34    24    26    1
    35    24    90    1
    36    25    91    1
    37    25    92    1
    38    25    93    1
    39    26    94    1
    40    26    95    1
    41    26    96    1
    42    27    28   ar
    43    28    29   ar
    44    29    30   ar
    45    29    31    1
    46    30    33    1
    47    31    32    1
    48    32    33    1
    49    32    35    1
    50    34    97    1
    51    34    98    1
    52    34    99    1
    53    35    61    1
    54    36    37    1
    55    36    60    1
    56    37    38    1
    57    38    39    1
    58    39    40    1
    59    40    41    1
    60    41    42    1
    61    45   100    1
    62    47   101    1
    63    47   102    1
    64    47   103    1
    65    48   104    1
    66    49   105    1
    67    49   106    1
    68    49   107    1
    69    50   108    1
    70    51    59    1
    71    52   109    1
    72    52   110    1
    73    52   111    1
    74    53    54    1
    75    54    55    2
    76    54    56    1
    77    56   112    1
    78    56   113    1
    79    56   114    1
    80    57   115    1
    81    57   116    1
    82    57   117    1
    83    58   118    1
    84    58   119    1
    85    58   120    1
    86    59   121    1
    87    59   122    1
    88    59   123    1
    89    60    61    2
    90     1    47    1
    91     1    62    1
    92     2    63    1
    93     3    64    1
    94     4    65    1
    95     5     6    1
    96     7     8    2
    97     9    78    1
    98    15    79    1
    99    18    80    1
   100    18    81    1
   101    19    82    1
   102    19    83    1
   103    20    23    1
   104    21    84    1
   105    21    85    1
   106    22    86    1
   107    22    87    1
   108    27    45    1
   109    28    34    1
   110    32    58    1
   111    33    46    2
   112    36    51    1
   113    36    66    1
   114    37    52    1
   115    37    67    1
   116    38    53    1
   117    38    68    1
   118    42    48    1
   119    42    72    1
   120    43    44    2
   121    60    73    1
   122    61    74    1
   123    39    69    1
   124    39    57    1
   125    40    70    1
   126    40    50    1
   127    41    71    1
   128    41    49    1
