@<TRIPOS>MOLECULE
*****
 123 128 0 0 0
SMALL
GASTEIGER

@<TRIPOS>ATOM
     1 C         3.49127   3.191699   -1.109373 C.3        1 UNL1     0.0009
     2 C         4.442253   4.575095   -0.32268 C.2        1 UNL1     -0.0787
     3 C         4.534167   5.958927   0.092779 C.2        1 UNL1     -0.0649
     4 C         5.772315   6.699325   0.978869 C.2        1 UNL1     -0.0542
     5 C         6.115695   7.80845   1.790662 C.2        1 UNL1     0.0115
     6 C         5.629836   9.195454   2.294135 C.3        1 UNL1     -0.0348
     7 C         7.425101   7.718819   2.715006 C.2        1 UNL1     0.2441
     8 O         8.483349   8.259112   2.423938 O.2        1 UNL1     -0.2702
     9 N         7.202696   7.200552   4.002674 N.am        1 UNL1     -0.2772
     10 C         7.314115   5.829117   3.994175 C.2        1 UNL1     0.1049
     11 C         6.241632   5.160394   3.611012 C.2        1 UNL1     0.0801
     12 C         8.796654   3.964143   3.231756 C.ar        1 UNL1     0.0753
     13 C         7.628194   3.37852   2.648356 C.ar        1 UNL1     0.0305
     14 C         6.290689   3.893256   2.933274 C.2        1 UNL1     0.0924
     15 N         4.980198   5.584867   3.423569 N.pl3        1 UNL1     -0.3170
     16 C         4.160089   4.429133   3.174665 C.3        1 UNL1     0.1275
     17 N         5.103183   3.420783   2.565134 N.2        1 UNL1     -0.2557
     18 C         3.753534   3.862464   4.53161 C.3        1 UNL1     0.0016
     19 C         3.067303   4.958891   5.330687 C.3        1 UNL1     0.0026
     20 N         1.904222   5.421961   4.586484 N.3        1 UNL1     -0.3018
     21 C         2.187698   5.928988   3.242262 C.3        1 UNL1     0.0026
     22 C         2.872599   4.809985   2.455728 C.3        1 UNL1     0.0016
     23 C         1.016463   6.245598   5.38282 C.3        1 UNL1     0.0012
     24 C         1.74515   6.774837   6.628082 C.3        1 UNL1     -0.0339
     25 C         0.82929   7.672127   7.476685 C.3        1 UNL1     -0.0615
     26 C         2.299637   5.616295   7.438701 C.3        1 UNL1     -0.0615
     27 C         10.055356   3.39521   3.05258 C.ar        1 UNL1     0.1347
     28 C         10.264411   2.223927   2.346575 C.ar        1 UNL1     0.0342
     29 C         9.106569   1.691966   1.740289 C.ar        1 UNL1     0.1435
     30 C         7.844735   2.270931   1.880975 C.ar        1 UNL1     0.0774
     31 O         9.126245   0.496534   1.111351 O.3        1 UNL1     -0.4436
     32 C         7.750278   0.090183   1.061697 C.3        1 UNL1     0.3143
     33 C         6.953676   1.374262   1.174743 C.2        1 UNL1     0.2504
     34 C         11.536774   1.423516   2.32346 C.3        1 UNL1     -0.0327
     35 O         7.50872   -0.436623   -0.248791 O.2        1 UNL1     -0.4528
     36 C         4.794583   -3.05741   0.167167 C.3        1 UNL1     0.0854
     37 C         3.345171   -2.903739   0.769755 C.3        1 UNL1     0.0236
     38 C         2.157459   -3.380656   -0.196492 C.3        1 UNL1     0.1131
     39 C         2.092631   -2.845927   -1.683816 C.3        1 UNL1     0.0200
     40 C         2.374184   -1.235648   -2.015729 C.3        1 UNL1     0.0661
     41 C         1.650233   0.082142   -1.230277 C.3        1 UNL1     0.0091
     42 C         2.304676   1.756989   -0.866964 C.3        1 UNL1     0.0661
     43 C         8.611981   5.147298   4.108282 C.2        1 UNL1     0.2131
     44 O         9.419635   5.49287   4.951498 O.2        1 UNL1     -0.2851
     45 O         11.146794   4.053154   3.615885 O.3        1 UNL1     -0.5056
     46 O         5.842447   1.610948   0.756408 O.2        1 UNL1     -0.2836
     47 C         3.468294   3.362185   -2.652224 C.3        1 UNL1     -0.0566
     48 O         1.094001   2.460355   -1.355493 O.3        1 UNL1     -0.3909
     49 C         0.976443   -0.411386   0.030648 C.3        1 UNL1     -0.0577
     50 O         3.755745   -0.994186   -2.190963 O.3        1 UNL1     -0.3910
     51 O         4.860806   -3.424507   -1.192349 O.3        1 UNL1     -0.3753
     52 C         3.222375   -1.633514   1.673303 C.3        1 UNL1     -0.0564
     53 O         0.844049   -3.556551   0.508024 O.3        1 UNL1     -0.4608
     54 C         -0.189075   -4.34768   0.078258 C.2        1 UNL1     0.3042
     55 O         -0.129529   -5.291726   -0.708551 O.2        1 UNL1     -0.2512
     56 C         -1.50791   -4.013035   0.71497 C.3        1 UNL1     0.0332
     57 C         2.799336   -3.934263   -2.618839 C.3        1 UNL1     -0.0567
     58 C         7.50074   -0.764644   2.326027 C.3        1 UNL1     0.0210
     59 C         4.296722   -2.476529   -2.097342 C.3        1 UNL1     0.0372
     60 C         5.674311   -1.868557   0.334108 C.2        1 UNL1     -0.0208
     61 C         6.486034   -1.264952   -0.535093 C.2        1 UNL1     0.0882
     62 H         4.32398   2.515358   -0.88163 H        1 UNL1     0.0365
     63 H         5.396493   4.081183   -0.127884 H        1 UNL1     0.0576
     64 H         3.686745   6.641872   0.000204 H        1 UNL1     0.0615
     65 H         6.588682   5.972862   0.943095 H        1 UNL1     0.0622
     66 H         5.256333   -3.859561   0.759946 H        1 UNL1     0.0645
     67 H         3.302566   -3.66906   1.564128 H        1 UNL1     0.0362
     68 H         2.40716   -4.449294   -0.28126 H        1 UNL1     0.0741
     69 H         1.090677   -2.994679   -2.063775 H        1 UNL1     0.0359
     70 H         1.951041   -1.17457   -3.03665 H        1 UNL1     0.0600
     71 H         0.777684   0.246363   -1.892581 H        1 UNL1     0.0348
     72 H         2.936276   1.352488   -1.671187 H        1 UNL1     0.0602
     73 H         5.684323   -1.582293   1.356459 H        1 UNL1     0.0628
     74 H         6.494773   -1.459353   -1.608112 H        1 UNL1     0.1022
     75 H         5.3423   9.142584   3.371893 H        1 UNL1     0.0279
     76 H         6.363364   9.99854   2.286505 H        1 UNL1     0.0279
     77 H         4.68185   9.50748   1.831897 H        1 UNL1     0.0279
     78 H         6.258042   7.429278   4.304981 H        1 UNL1     0.1553
     79 H         4.616287   6.437061   3.808624 H        1 UNL1     0.1484
     80 H         3.088607   3.004312   4.376004 H        1 UNL1     0.0317
     81 H         4.626563   3.487755   5.076647 H        1 UNL1     0.0317
     82 H         3.752212   5.790557   5.552372 H        1 UNL1     0.0428
     83 H         2.787376   4.533912   6.295096 H        1 UNL1     0.0428
     84 H         1.290064   6.195436   2.67563 H        1 UNL1     0.0428
     85 H         2.771096   6.859653   3.271015 H        1 UNL1     0.0428
     86 H         2.943745   5.167892   1.445368 H        1 UNL1     0.0317
     87 H         2.202047   3.945986   2.372288 H        1 UNL1     0.0317
     88 H         0.703898   7.101624   4.770597 H        1 UNL1     0.0429
     89 H         0.105991   5.698509   5.659423 H        1 UNL1     0.0429
     90 H         2.615027   7.362941   6.312389 H        1 UNL1     0.0308
     91 H         1.410742   8.324656   8.134881 H        1 UNL1     0.0233
     92 H         0.189542   8.285363   6.837722 H        1 UNL1     0.0233
     93 H         0.154825   7.092394   8.118435 H        1 UNL1     0.0233
     94 H         3.162054   5.946204   8.027965 H        1 UNL1     0.0233
     95 H         1.538697   5.247507   8.132191 H        1 UNL1     0.0233
     96 H         2.617109   4.793042   6.792609 H        1 UNL1     0.0233
     97 H         12.416886   2.05509   2.399285 H        1 UNL1     0.0280
     98 H         11.598424   0.719969   3.163981 H        1 UNL1     0.0280
     99 H         11.598785   0.856172   1.380395 H        1 UNL1     0.0280
     100 H         11.008276   4.968815   3.783219 H        1 UNL1     0.2922
     101 H         2.633757   4.001652   -2.939078 H        1 UNL1     0.0236
     102 H         3.459826   2.413696   -3.188209 H        1 UNL1     0.0236
     103 H         4.363923   3.887202   -3.024245 H        1 UNL1     0.0236
     104 H         0.812243   3.082621   -0.656661 H        1 UNL1     0.2098
     105 H         0.880204   -1.492326   0.094831 H        1 UNL1     0.0234
     106 H         1.393908   -0.013707   0.955581 H        1 UNL1     0.0234
     107 H         0.0   0.0   0.0 H        1 UNL1     0.0234
     108 H         3.848202   -0.359662   -2.927576 H        1 UNL1     0.2098
     109 H         3.459916   -1.846538   2.724924 H        1 UNL1     0.0234
     110 H         3.833348   -0.79493   1.322259 H        1 UNL1     0.0234
     111 H         2.199036   -1.235115   1.674544 H        1 UNL1     0.0234
     112 H         -1.59972   -2.929083   0.833149 H        1 UNL1     0.0342
     113 H         -2.348379   -4.417349   0.152844 H        1 UNL1     0.0342
     114 H         -1.529584   -4.464046   1.71661 H        1 UNL1     0.0342
     115 H         3.843916   -3.670725   -2.834682 H        1 UNL1     0.0234
     116 H         2.794293   -4.944884   -2.205718 H        1 UNL1     0.0234
     117 H         2.376445   -3.980498   -3.637155 H        1 UNL1     0.0234
     118 H         7.46616   -0.1495   3.24222 H        1 UNL1     0.0309
     119 H         6.588754   -1.366873   2.264354 H        1 UNL1     0.0309
     120 H         8.316121   -1.468648   2.525124 H        1 UNL1     0.0309
     121 H         3.458482   -1.997121   -1.592488 H        1 UNL1     0.0524
     122 H         5.013249   -1.685674   -2.375146 H        1 UNL1     0.0524
     123 H         3.955067   -2.975592   -2.999729 H        1 UNL1     0.0524
@<TRIPOS>BOND
     1     1     2    1
     2     1    42    1
     3     2     3    2
     4     3     4    1
     5     4     5    2
     6     5     7    1
     7     6    75    1
     8     6    76    1
     9     6    77    1
    10     7     9   am
    11     9    10    1
    12    10    11    2
    13    10    43    1
    14    11    14    1
    15    11    15    1
    16    12    13   ar
    17    12    27   ar
    18    12    43    1
    19    13    14    1
    20    13    30   ar
    21    14    17    2
    22    15    16    1
    23    16    17    1
    24    16    18    1
    25    16    22    1
    26    18    19    1
    27    19    20    1
    28    20    21    1
    29    21    22    1
    30    23    24    1
    31    23    88    1
    32    23    89    1
    33    24    25    1
    34    24    26    1
    35    24    90    1
    36    25    91    1
    37    25    92    1
    38    25    93    1
    39    26    94    1
    40    26    95    1
    41    26    96    1
    42    27    28   ar
    43    28    29   ar
    44    29    30   ar
    45    29    31    1
    46    30    33    1
    47    31    32    1
    48    32    33    1
    49    32    35    1
    50    34    97    1
    51    34    98    1
    52    34    99    1
    53    35    61    1
    54    36    37    1
    55    36    60    1
    56    37    38    1
    57    38    39    1
    58    39    40    1
    59    40    41    1
    60    41    42    1
    61    45   100    1
    62    47   101    1
    63    47   102    1
    64    47   103    1
    65    48   104    1
    66    49   105    1
    67    49   106    1
    68    49   107    1
    69    50   108    1
    70    51    59    1
    71    52   109    1
    72    52   110    1
    73    52   111    1
    74    53    54    1
    75    54    55    2
    76    54    56    1
    77    56   112    1
    78    56   113    1
    79    56   114    1
    80    57   115    1
    81    57   116    1
    82    57   117    1
    83    58   118    1
    84    58   119    1
    85    58   120    1
    86    59   121    1
    87    59   122    1
    88    59   123    1
    89    60    61    2
    90     1    47    1
    91     1    62    1
    92     2    63    1
    93     3    64    1
    94     4    65    1
    95     5     6    1
    96     7     8    2
    97     9    78    1
    98    15    79    1
    99    18    80    1
   100    18    81    1
   101    19    82    1
   102    19    83    1
   103    20    23    1
   104    21    84    1
   105    21    85    1
   106    22    86    1
   107    22    87    1
   108    27    45    1
   109    28    34    1
   110    32    58    1
   111    33    46    2
   112    36    51    1
   113    36    66    1
   114    37    52    1
   115    37    67    1
   116    38    53    1
   117    38    68    1
   118    42    48    1
   119    42    72    1
   120    43    44    2
   121    60    73    1
   122    61    74    1
   123    39    69    1
   124    39    57    1
   125    40    70    1
   126    40    50    1
   127    41    71    1
   128    41    49    1
