@<TRIPOS>MOLECULE
*****
 123 128 0 0 0
SMALL
GASTEIGER

@<TRIPOS>ATOM
     1 C         3.775406   -2.067825   -2.741974 C.3        1 UNL1     0.0009
     2 C         4.132394   -2.433655   -4.524042 C.2        1 UNL1     -0.0787
     3 C         4.376612   -3.386683   -5.586182 C.2        1 UNL1     -0.0649
     4 C         4.544655   -3.078526   -7.24243 C.2        1 UNL1     -0.0542
     5 C         4.488648   -3.644071   -8.540158 C.2        1 UNL1     0.0115
     6 C         4.390398   -4.981077   -9.32507 C.3        1 UNL1     -0.0348
     7 C         4.342232   -2.668916   -9.806896 C.2        1 UNL1     0.2441
     8 O         5.281619   -2.37728   -10.534238 O.2        1 UNL1     -0.2702
     9 N         3.017409   -2.381318   -10.178759 N.am        1 UNL1     -0.2772
     10 C         2.551689   -1.286245   -9.487934 C.2        1 UNL1     0.1049
     11 C         2.090905   -1.517876   -8.272102 C.2        1 UNL1     0.0801
     12 C         3.144663   1.0608   -8.857777 C.ar        1 UNL1     0.0753
     13 C         2.828959   0.695573   -7.510354 C.ar        1 UNL1     0.0305
     14 C         2.166152   -0.567961   -7.195359 C.2        1 UNL1     0.0924
     15 N         1.804085   -2.681817   -7.664233 N.pl3        1 UNL1     -0.3170
     16 C         1.16997   -2.37744   -6.409042 C.3        1 UNL1     0.1275
     17 N         1.714096   -1.021786   -6.029763 N.2        1 UNL1     -0.2557
     18 C         -0.315617   -2.173834   -6.690606 C.3        1 UNL1     0.0016
     19 C         -0.854513   -3.416549   -7.381143 C.3        1 UNL1     0.0026
     20 N         -0.638515   -4.565268   -6.512341 N.3        1 UNL1     -0.3018
     21 C         0.755792   -4.805992   -6.135078 C.3        1 UNL1     0.0026
     22 C         1.275466   -3.546867   -5.439063 C.3        1 UNL1     0.0016
     23 C         -1.375258   -5.73927   -6.936099 C.3        1 UNL1     0.0012
     24 C         -0.863339   -6.233849   -8.298114 C.3        1 UNL1     -0.0339
     25 C         0.616922   -5.874252   -8.506859 C.3        1 UNL1     -0.0615
     26 C         -1.099846   -7.728144   -8.432004 C.3        1 UNL1     -0.0615
     27 C         3.66552   2.316271   -9.162109 C.ar        1 UNL1     0.1347
     28 C         3.875741   3.300341   -8.212654 C.ar        1 UNL1     0.0342
     29 C         3.603769   2.901347   -6.886758 C.ar        1 UNL1     0.1435
     30 C         3.115785   1.634825   -6.562699 C.ar        1 UNL1     0.0774
     31 O         3.653861   3.780183   -5.861993 O.3        1 UNL1     -0.4436
     32 C         2.885286   3.163879   -4.817802 C.3        1 UNL1     0.3143
     33 C         2.909837   1.681298   -5.130152 C.2        1 UNL1     0.2504
     34 C         4.190687   4.743322   -8.493216 C.3        1 UNL1     -0.0327
     35 O         3.607974   3.34436   -3.59371 O.2        1 UNL1     -0.4528
     36 C         0.987708   3.503191   -0.851983 C.3        1 UNL1     0.0854
     37 C         -0.118298   2.446242   -0.468406 C.3        1 UNL1     0.0236
     38 C         -0.097965   1.972404   1.063524 C.3        1 UNL1     0.1131
     39 C         1.255287   1.473397   1.713118 C.3        1 UNL1     0.0200
     40 C         2.268668   0.449164   0.872617 C.3        1 UNL1     0.0661
     41 C         1.807478   -0.984039   0.091053 C.3        1 UNL1     0.0091
     42 C         2.471178   -1.780906   -1.422191 C.3        1 UNL1     0.0661
     43 C         2.815355   0.090748   -9.93147 C.2        1 UNL1     0.2131
     44 O         2.662083   0.404344   -11.098047 O.2        1 UNL1     -0.2851
     45 O         3.988341   2.575543   -10.492523 O.3        1 UNL1     -0.5056
     46 O         2.805355   0.748327   -4.365624 O.2        1 UNL1     -0.2836
     47 C         5.053011   -2.269882   -1.883556 C.3        1 UNL1     -0.0566
     48 O         2.553947   -3.130352   -0.812878 O.3        1 UNL1     -0.3909
     49 C         0.299344   -1.016699   -0.018309 C.3        1 UNL1     -0.0577
     50 O         3.155036   1.183253   0.052136 O.3        1 UNL1     -0.3910
     51 O         1.956347   3.767959   0.137496 O.3        1 UNL1     -0.3753
     52 C         -0.406345   1.453642   -1.641744 C.3        1 UNL1     -0.0564
     53 O         -1.346534   1.255427   1.487016 O.3        1 UNL1     -0.4608
     54 C         -1.396438   -0.003153   2.026845 C.2        1 UNL1     0.3042
     55 O         -2.143174   -0.925756   1.702767 O.2        1 UNL1     -0.2512
     56 C         -0.363697   -0.242377   3.091238 C.3        1 UNL1     0.0332
     57 C         1.914768   2.718461   2.470136 C.3        1 UNL1     -0.0567
     58 C         1.437195   3.68309   -4.975857 C.3        1 UNL1     0.0210
     59 C         1.752894   3.084707   1.373473 C.3        1 UNL1     0.0372
     60 C         1.727754   3.210707   -2.109737 C.2        1 UNL1     -0.0208
     61 C         3.032873   3.268509   -2.378188 C.2        1 UNL1     0.0882
     62 H         3.730561   -1.000485   -2.989935 H        1 UNL1     0.0365
     63 H         4.241157   -1.422439   -4.921638 H        1 UNL1     0.0576
     64 H         4.309848   -4.463505   -5.415577 H        1 UNL1     0.0615
     65 H         4.681787   -1.994972   -7.293306 H        1 UNL1     0.0622
     66 H         0.429409   4.43115   -1.039709 H        1 UNL1     0.0645
     67 H         -1.061416   3.01849   -0.508638 H        1 UNL1     0.0362
     68 H         -0.321686   2.931212   1.555618 H        1 UNL1     0.0741
     69 H         1.024555   0.901727   2.602143 H        1 UNL1     0.0359
     70 H         2.900867   0.082131   1.703684 H        1 UNL1     0.0600
     71 H         1.981814   -1.713454   0.906233 H        1 UNL1     0.0348
     72 H         3.253273   -1.089996   -1.075367 H        1 UNL1     0.0602
     73 H         1.031607   3.04386   -2.893823 H        1 UNL1     0.0628
     74 H         3.813266   3.377488   -1.624299 H        1 UNL1     0.1022
     75 H         3.657025   -5.66837   -8.838421 H        1 UNL1     0.0279
     76 H         4.013351   -4.919203   -10.34344 H        1 UNL1     0.0279
     77 H         5.314169   -5.575471   -9.269902 H        1 UNL1     0.0279
     78 H         2.417508   -3.169423   -9.944053 H        1 UNL1     0.1553
     79 H         1.65269   -3.543934   -8.154913 H        1 UNL1     0.1484
     80 H         -0.836155   -1.984003   -5.744155 H        1 UNL1     0.0317
     81 H         -0.477374   -1.291918   -7.319661 H        1 UNL1     0.0317
     82 H         -0.387034   -3.570782   -8.364804 H        1 UNL1     0.0428
     83 H         -1.91459   -3.249274   -7.574291 H        1 UNL1     0.0428
     84 H         0.88154   -5.624532   -5.419542 H        1 UNL1     0.0428
     85 H         1.366025   -5.109063   -6.9971 H        1 UNL1     0.0428
     86 H         2.247309   -3.805114   -5.061149 H        1 UNL1     0.0317
     87 H         0.692807   -3.353634   -4.530071 H        1 UNL1     0.0317
     88 H         -1.212743   -6.531058   -6.193161 H        1 UNL1     0.0429
     89 H         -2.454806   -5.543207   -6.966248 H        1 UNL1     0.0429
     90 H         -1.452378   -5.764773   -9.095118 H        1 UNL1     0.0308
     91 H         0.759434   -4.790717   -8.559245 H        1 UNL1     0.0233
     92 H         1.230312   -6.277958   -7.69792 H        1 UNL1     0.0233
     93 H         1.021565   -6.293622   -9.435959 H        1 UNL1     0.0233
     94 H         -0.798865   -8.242049   -7.512685 H        1 UNL1     0.0233
     95 H         -2.163075   -7.924969   -8.595607 H        1 UNL1     0.0233
     96 H         -0.530587   -8.149155   -9.265468 H        1 UNL1     0.0233
     97 H         4.828097   4.859258   -9.364707 H        1 UNL1     0.0280
     98 H         3.287177   5.3312   -8.701364 H        1 UNL1     0.0280
     99 H         4.708486   5.183535   -7.625349 H        1 UNL1     0.0280
     100 H         4.189215   1.810802   -11.00286 H        1 UNL1     0.2922
     101 H         5.893482   -2.523539   -2.529252 H        1 UNL1     0.0236
     102 H         4.92017   -2.994988   -1.081335 H        1 UNL1     0.0236
     103 H         5.361252   -1.341258   -1.374796 H        1 UNL1     0.0236
     104 H         2.788634   -3.760331   -1.522117 H        1 UNL1     0.2098
     105 H         -0.074737   -1.457143   -0.939115 H        1 UNL1     0.0234
     106 H         -0.210331   -1.450159   0.842082 H        1 UNL1     0.0234
     107 H         -0.0   0.0   0.0 H        1 UNL1     0.0234
     108 H         2.616789   1.629907   -0.629449 H        1 UNL1     0.2098
     109 H         -0.654437   1.975411   -2.57658 H        1 UNL1     0.0234
     110 H         0.413635   0.749994   -1.821345 H        1 UNL1     0.0234
     111 H         -1.267848   0.808459   -1.423799 H        1 UNL1     0.0234
     112 H         -0.041212   0.712149   3.51812 H        1 UNL1     0.0342
     113 H         -0.724033   -0.915703   3.867533 H        1 UNL1     0.0342
     114 H         0.51052   -0.713646   2.62133 H        1 UNL1     0.0342
     115 H         2.625079   2.396337   3.244011 H        1 UNL1     0.0234
     116 H         2.440168   3.411683   1.810251 H        1 UNL1     0.0234
     117 H         1.194362   3.299917   3.070855 H        1 UNL1     0.0234
     118 H         0.777769   2.934704   -5.449229 H        1 UNL1     0.0309
     119 H         0.991032   4.006303   -4.029984 H        1 UNL1     0.0309
     120 H         1.370197   4.542409   -5.652014 H        1 UNL1     0.0309
     121 H         2.004533   2.036274   1.215921 H        1 UNL1     0.0524
     122 H         2.407041   3.466276   2.175056 H        1 UNL1     0.0524
     123 H         0.717555   3.178407   1.688731 H        1 UNL1     0.0524
@<TRIPOS>BOND
     1     1     2    1
     2     1    42    1
     3     2     3    2
     4     3     4    1
     5     4     5    2
     6     5     7    1
     7     6    75    1
     8     6    76    1
     9     6    77    1
    10     7     9   am
    11     9    10    1
    12    10    11    2
    13    10    43    1
    14    11    14    1
    15    11    15    1
    16    12    13   ar
    17    12    27   ar
    18    12    43    1
    19    13    14    1
    20    13    30   ar
    21    14    17    2
    22    15    16    1
    23    16    17    1
    24    16    18    1
    25    16    22    1
    26    18    19    1
    27    19    20    1
    28    20    21    1
    29    21    22    1
    30    23    24    1
    31    23    88    1
    32    23    89    1
    33    24    25    1
    34    24    26    1
    35    24    90    1
    36    25    91    1
    37    25    92    1
    38    25    93    1
    39    26    94    1
    40    26    95    1
    41    26    96    1
    42    27    28   ar
    43    28    29   ar
    44    29    30   ar
    45    29    31    1
    46    30    33    1
    47    31    32    1
    48    32    33    1
    49    32    35    1
    50    34    97    1
    51    34    98    1
    52    34    99    1
    53    35    61    1
    54    36    37    1
    55    36    60    1
    56    37    38    1
    57    38    39    1
    58    39    40    1
    59    40    41    1
    60    41    42    1
    61    45   100    1
    62    47   101    1
    63    47   102    1
    64    47   103    1
    65    48   104    1
    66    49   105    1
    67    49   106    1
    68    49   107    1
    69    50   108    1
    70    51    59    1
    71    52   109    1
    72    52   110    1
    73    52   111    1
    74    53    54    1
    75    54    55    2
    76    54    56    1
    77    56   112    1
    78    56   113    1
    79    56   114    1
    80    57   115    1
    81    57   116    1
    82    57   117    1
    83    58   118    1
    84    58   119    1
    85    58   120    1
    86    59   121    1
    87    59   122    1
    88    59   123    1
    89    60    61    2
    90     1    47    1
    91     1    62    1
    92     2    63    1
    93     3    64    1
    94     4    65    1
    95     5     6    1
    96     7     8    2
    97     9    78    1
    98    15    79    1
    99    18    80    1
   100    18    81    1
   101    19    82    1
   102    19    83    1
   103    20    23    1
   104    21    84    1
   105    21    85    1
   106    22    86    1
   107    22    87    1
   108    27    45    1
   109    28    34    1
   110    32    58    1
   111    33    46    2
   112    36    51    1
   113    36    66    1
   114    37    52    1
   115    37    67    1
   116    38    53    1
   117    38    68    1
   118    42    48    1
   119    42    72    1
   120    43    44    2
   121    60    73    1
   122    61    74    1
   123    39    69    1
   124    39    57    1
   125    40    70    1
   126    40    50    1
   127    41    71    1
   128    41    49    1
