@<TRIPOS>MOLECULE
*****
 123 128 0 0 0
SMALL
GASTEIGER

@<TRIPOS>ATOM
     1 C         4.195419   2.853585   2.06279 C.3        1 UNL1     0.0009
     2 C         5.49998   4.127336   1.727059 C.2        1 UNL1     -0.0787
     3 C         6.874838   4.468608   1.428154 C.2        1 UNL1     -0.0649
     4 C         7.515196   5.996127   1.077461 C.2        1 UNL1     -0.0542
     5 C         8.598698   6.693571   0.488672 C.2        1 UNL1     0.0115
     6 C         10.026966   6.530172   -0.100117 C.3        1 UNL1     -0.0348
     7 C         8.406381   8.237879   0.094824 C.2        1 UNL1     0.2441
     8 O         8.851377   9.15684   0.768631 O.2        1 UNL1     -0.2702
     9 N         7.921503   8.457934   -1.206183 N.am        1 UNL1     -0.2772
     10 C         6.545545   8.453845   -1.212926 C.2        1 UNL1     0.1049
     11 C         5.967296   7.267777   -1.268526 C.2        1 UNL1     0.0801
     12 C         4.553359   9.413028   -0.043099 C.ar        1 UNL1     0.0753
     13 C         4.064171   8.071633   0.056717 C.ar        1 UNL1     0.0305
     14 C         4.694109   6.971413   -0.669743 C.2        1 UNL1     0.0924
     15 N         6.496235   6.06034   -1.530913 N.pl3        1 UNL1     -0.3170
     16 C         5.4125   5.120225   -1.640263 C.3        1 UNL1     0.1275
     17 N         4.321362   5.698879   -0.772911 N.2        1 UNL1     -0.2557
     18 C         4.895813   5.190588   -3.074064 C.3        1 UNL1     0.0016
     19 C         6.054572   4.925907   -4.02212 C.3        1 UNL1     0.0026
     20 N         6.608173   3.611221   -3.728599 N.3        1 UNL1     -0.3018
     21 C         7.076086   3.426572   -2.353343 C.3        1 UNL1     0.0026
     22 C         5.895068   3.692838   -1.418359 C.3        1 UNL1     0.0016
     23 C         7.512358   3.137527   -4.757535 C.3        1 UNL1     0.0012
     24 C         6.736049   2.785068   -6.036156 C.3        1 UNL1     -0.0339
     25 C         6.734086   3.955297   -7.03346 C.3        1 UNL1     -0.0615
     26 C         7.303795   1.52125   -6.658417 C.3        1 UNL1     -0.0615
     27 C         3.877185   10.474188   0.554267 C.ar        1 UNL1     0.1347
     28 C         2.685545   10.323542   1.240817 C.ar        1 UNL1     0.0342
     29 C         2.248691   8.987816   1.367932 C.ar        1 UNL1     0.1435
     30 C         2.934756   7.910576   0.805715 C.ar        1 UNL1     0.0774
     31 O         1.049929   8.687289   1.913514 O.3        1 UNL1     -0.4436
     32 C         0.76225   7.360008   1.448285 C.3        1 UNL1     0.3143
     33 C         2.110769   6.758723   1.107455 C.2        1 UNL1     0.2504
     34 C         1.779092   11.436251   1.68839 C.3        1 UNL1     -0.0327
     35 O         0.245381   6.620999   2.561822 O.2        1 UNL1     -0.4528
     36 C         -2.129606   4.050291   1.092471 C.3        1 UNL1     0.0854
     37 C         -1.846753   2.933593   0.015206 C.3        1 UNL1     0.0236
     38 C         -2.229694   1.443993   0.469291 C.3        1 UNL1     0.1131
     39 C         -1.705786   0.886059   1.853668 C.3        1 UNL1     0.0200
     40 C         -0.128761   1.150199   2.328705 C.3        1 UNL1     0.0661
     41 C         1.253634   0.862413   1.388612 C.3        1 UNL1     0.0091
     42 C         2.869827   1.7296   1.35242 C.3        1 UNL1     0.0661
     43 C         5.75639   9.648966   -0.879345 C.2        1 UNL1     0.2131
     44 O         6.039779   10.730922   -1.3608 O.2        1 UNL1     -0.2851
     45 O         4.444817   11.742263   0.448345 O.3        1 UNL1     -0.5056
     46 O         2.437543   5.59293   1.106853 O.2        1 UNL1     -0.2836
     47 C         4.352319   2.28667   3.499442 C.3        1 UNL1     -0.0566
     48 O         3.669373   0.481573   1.400088 O.3        1 UNL1     -0.3909
     49 C         0.831736   0.655315   -0.048958 C.3        1 UNL1     -0.0577
     50 O         -0.008013   2.388693   2.998984 O.3        1 UNL1     -0.3910
     51 O         -2.514148   3.591646   2.368874 O.3        1 UNL1     -0.3753
     52 C         -0.562004   3.243436   -0.820477 C.3        1 UNL1     -0.0564
     53 O         -2.285828   0.46543   -0.66719 O.3        1 UNL1     -0.4608
     54 C         -2.197502   -0.896934   -0.548484 C.2        1 UNL1     0.3042
     55 O         -1.278836   -1.621757   -0.928647 O.2        1 UNL1     -0.2512
     56 C         -3.354628   -1.512958   0.185196 C.3        1 UNL1     0.0332
     57 C         -2.859549   1.121161   2.936134 C.3        1 UNL1     -0.0567
     58 C         -0.055847   7.520755   0.145823 C.3        1 UNL1     0.0210
     59 C         -3.345168   4.489486   3.103145 C.3        1 UNL1     0.0372
     60 C         -1.018765   5.018645   1.301004 C.2        1 UNL1     -0.0208
     61 C         -0.495205   5.504095   2.427488 C.2        1 UNL1     0.0882
     62 H         3.45259   3.658113   2.123233 H        1 UNL1     0.0365
     63 H         4.928196   5.046747   1.869244 H        1 UNL1     0.0576
     64 H         7.62681   3.699852   1.236686 H        1 UNL1     0.0615
     65 H         6.721282   6.686249   1.375649 H        1 UNL1     0.0622
     66 H         -2.96253   4.632747   0.674107 H        1 UNL1     0.0645
     67 H         -2.597913   3.123271   -0.771141 H        1 UNL1     0.0362
     68 H         -3.316538   1.563841   0.595508 H        1 UNL1     0.0741
     69 H         -1.771993   -0.193695   1.841236 H        1 UNL1     0.0359
     70 H         -0.041602   0.392128   3.130448 H        1 UNL1     0.0600
     71 H         1.485445   -0.175483   1.698437 H        1 UNL1     0.0348
     72 H         2.405048   1.9944   2.313241 H        1 UNL1     0.0602
     73 H         -0.724533   5.419889   0.363092 H        1 UNL1     0.0628
     74 H         -0.700007   5.108929   3.423047 H        1 UNL1     0.1022
     75 H         10.347131   5.461058   -0.061085 H        1 UNL1     0.0279
     76 H         10.14814   6.77269   -1.153479 H        1 UNL1     0.0279
     77 H         10.799377   7.010506   0.518236 H        1 UNL1     0.0279
     78 H         8.233072   7.707186   -1.818866 H        1 UNL1     0.1553
     79 H         7.380106   5.926603   -1.986786 H        1 UNL1     0.1484
     80 H         4.09619   4.451102   -3.202636 H        1 UNL1     0.0317
     81 H         4.453119   6.170433   -3.282816 H        1 UNL1     0.0317
     82 H         6.826738   5.705861   -3.949006 H        1 UNL1     0.0428
     83 H         5.664428   4.982601   -5.038793 H        1 UNL1     0.0428
     84 H         7.412814   2.407798   -2.137642 H        1 UNL1     0.0428
     85 H         7.953696   4.049915   -2.13298 H        1 UNL1     0.0428
     86 H         6.235797   3.420429   -0.436684 H        1 UNL1     0.0317
     87 H         5.090799   2.973807   -1.616456 H        1 UNL1     0.0317
     88 H         8.219197   3.944992   -4.989212 H        1 UNL1     0.0429
     89 H         8.104443   2.282958   -4.405509 H        1 UNL1     0.0429
     90 H         5.698211   2.549072   -5.772695 H        1 UNL1     0.0308
     91 H         7.752755   4.24999   -7.302853 H        1 UNL1     0.0233
     92 H         6.186079   3.689061   -7.940331 H        1 UNL1     0.0233
     93 H         6.241144   4.847714   -6.629189 H        1 UNL1     0.0233
     94 H         6.885363   1.372374   -7.659709 H        1 UNL1     0.0233
     95 H         8.389536   1.608158   -6.756272 H        1 UNL1     0.0233
     96 H         7.07334   0.64011   -6.053064 H        1 UNL1     0.0233
     97 H         0.883532   11.061482   2.17496 H        1 UNL1     0.0280
     98 H         2.26415   12.096609   2.419076 H        1 UNL1     0.0280
     99 H         1.472939   12.036395   0.815926 H        1 UNL1     0.0280
     100 H         5.336433   11.798062   0.744199 H        1 UNL1     0.2922
     101 H         3.557145   1.569054   3.700397 H        1 UNL1     0.0236
     102 H         4.405889   3.062173   4.262796 H        1 UNL1     0.0236
     103 H         5.285408   1.710891   3.617831 H        1 UNL1     0.0236
     104 H         3.896224   0.312156   2.335399 H        1 UNL1     0.2098
     105 H         0.512154   1.561075   -0.55815 H        1 UNL1     0.0234
     106 H         1.551431   0.111789   -0.660959 H        1 UNL1     0.0234
     107 H         0.0   0.0   0.0 H        1 UNL1     0.0234
     108 H         -0.221615   3.089865   2.353616 H        1 UNL1     0.2098
     109 H         0.336279   3.314653   -0.191408 H        1 UNL1     0.0234
     110 H         -0.38861   2.522383   -1.626555 H        1 UNL1     0.0234
     111 H         -0.639256   4.208548   -1.338683 H        1 UNL1     0.0234
     112 H         -3.220832   -2.59717   0.247876 H        1 UNL1     0.0342
     113 H         -3.490587   -1.078235   1.174325 H        1 UNL1     0.0342
     114 H         -4.269179   -1.319301   -0.392089 H        1 UNL1     0.0342
     115 H         -3.785124   0.593513   2.667643 H        1 UNL1     0.0234
     116 H         -2.58817   0.81394   3.948072 H        1 UNL1     0.0234
     117 H         -3.214694   2.165102   2.980871 H        1 UNL1     0.0234
     118 H         -1.128194   7.688854   0.347862 H        1 UNL1     0.0309
     119 H         0.316986   8.322455   -0.499526 H        1 UNL1     0.0309
     120 H         -0.053597   6.612557   -0.466776 H        1 UNL1     0.0309
     121 H         -2.777539   5.405151   3.266582 H        1 UNL1     0.0524
     122 H         -4.259851   4.760211   2.549882 H        1 UNL1     0.0524
     123 H         -3.626514   4.047947   4.054975 H        1 UNL1     0.0524
@<TRIPOS>BOND
     1     1     2    1
     2     1    42    1
     3     2     3    2
     4     3     4    1
     5     4     5    2
     6     5     7    1
     7     6    75    1
     8     6    76    1
     9     6    77    1
    10     7     9   am
    11     9    10    1
    12    10    11    2
    13    10    43    1
    14    11    14    1
    15    11    15    1
    16    12    13   ar
    17    12    27   ar
    18    12    43    1
    19    13    14    1
    20    13    30   ar
    21    14    17    2
    22    15    16    1
    23    16    17    1
    24    16    18    1
    25    16    22    1
    26    18    19    1
    27    19    20    1
    28    20    21    1
    29    21    22    1
    30    23    24    1
    31    23    88    1
    32    23    89    1
    33    24    25    1
    34    24    26    1
    35    24    90    1
    36    25    91    1
    37    25    92    1
    38    25    93    1
    39    26    94    1
    40    26    95    1
    41    26    96    1
    42    27    28   ar
    43    28    29   ar
    44    29    30   ar
    45    29    31    1
    46    30    33    1
    47    31    32    1
    48    32    33    1
    49    32    35    1
    50    34    97    1
    51    34    98    1
    52    34    99    1
    53    35    61    1
    54    36    37    1
    55    36    60    1
    56    37    38    1
    57    38    39    1
    58    39    40    1
    59    40    41    1
    60    41    42    1
    61    45   100    1
    62    47   101    1
    63    47   102    1
    64    47   103    1
    65    48   104    1
    66    49   105    1
    67    49   106    1
    68    49   107    1
    69    50   108    1
    70    51    59    1
    71    52   109    1
    72    52   110    1
    73    52   111    1
    74    53    54    1
    75    54    55    2
    76    54    56    1
    77    56   112    1
    78    56   113    1
    79    56   114    1
    80    57   115    1
    81    57   116    1
    82    57   117    1
    83    58   118    1
    84    58   119    1
    85    58   120    1
    86    59   121    1
    87    59   122    1
    88    59   123    1
    89    60    61    2
    90     1    47    1
    91     1    62    1
    92     2    63    1
    93     3    64    1
    94     4    65    1
    95     5     6    1
    96     7     8    2
    97     9    78    1
    98    15    79    1
    99    18    80    1
   100    18    81    1
   101    19    82    1
   102    19    83    1
   103    20    23    1
   104    21    84    1
   105    21    85    1
   106    22    86    1
   107    22    87    1
   108    27    45    1
   109    28    34    1
   110    32    58    1
   111    33    46    2
   112    36    51    1
   113    36    66    1
   114    37    52    1
   115    37    67    1
   116    38    53    1
   117    38    68    1
   118    42    48    1
   119    42    72    1
   120    43    44    2
   121    60    73    1
   122    61    74    1
   123    39    69    1
   124    39    57    1
   125    40    70    1
   126    40    50    1
   127    41    71    1
   128    41    49    1
