@<TRIPOS>MOLECULE
*****
 123 128 0 0 0
SMALL
GASTEIGER

@<TRIPOS>ATOM
     1 C         3.919147   -0.881736   0.949204 C.3        1 UNL1     0.0009
     2 C         5.243837   0.283435   1.518949 C.2        1 UNL1     -0.0787
     3 C         6.369214   1.145814   1.225905 C.2        1 UNL1     -0.0649
     4 C         7.202089   2.167058   2.288796 C.2        1 UNL1     -0.0542
     5 C         8.056579   3.292797   2.386956 C.2        1 UNL1     0.0115
     6 C         8.947728   4.268948   1.57068 C.3        1 UNL1     -0.0348
     7 C         8.173009   4.059519   3.792506 C.2        1 UNL1     0.2441
     8 O         9.122296   3.918042   4.551034 O.2        1 UNL1     -0.2702
     9 N         7.244149   5.09874   3.975236 N.am        1 UNL1     -0.2772
     10 C         6.079897   4.611342   4.523216 C.2        1 UNL1     0.1049
     11 C         5.217438   4.077444   3.677439 C.2        1 UNL1     0.0801
     12 C         5.209403   3.175387   6.377295 C.ar        1 UNL1     0.0753
     13 C         4.446082   2.487577   5.380868 C.ar        1 UNL1     0.0305
     14 C         4.32587   3.002232   4.018616 C.2        1 UNL1     0.0924
     15 N         5.189116   4.114339   2.334173 N.pl3        1 UNL1     -0.3170
     16 C         3.948905   3.524866   1.904463 C.3        1 UNL1     0.1275
     17 N         3.589759   2.556197   3.004653 N.2        1 UNL1     -0.2557
     18 C         2.889349   4.621913   1.943568 C.3        1 UNL1     0.0016
     19 C         3.361855   5.785179   1.086165 C.3        1 UNL1     0.0026
     20 N         3.572647   5.308566   -0.273774 N.3        1 UNL1     -0.3018
     21 C         4.531037   4.209278   -0.405767 C.3        1 UNL1     0.0026
     22 C         4.034356   3.050038   0.459892 C.3        1 UNL1     0.0016
     23 C         3.732493   6.385594   -1.230385 C.3        1 UNL1     0.0012
     24 C         4.650997   5.950303   -2.383047 C.3        1 UNL1     -0.0339
     25 C         4.635499   6.972736   -3.531284 C.3        1 UNL1     -0.0615
     26 C         6.05893   5.712193   -1.865544 C.3        1 UNL1     -0.0615
     27 C         5.221064   2.745217   7.702035 C.ar        1 UNL1     0.1347
     28 C         4.480704   1.668258   8.155992 C.ar        1 UNL1     0.0342
     29 C         3.775451   0.976979   7.148066 C.ar        1 UNL1     0.1435
     30 C         3.78319   1.374712   5.810543 C.ar        1 UNL1     0.0774
     31 O         2.921476   -0.026206   7.446988 O.3        1 UNL1     -0.4436
     32 C         2.078126   -0.141128   6.290949 C.3        1 UNL1     0.3143
     33 C         2.884336   0.449886   5.152116 C.2        1 UNL1     0.2504
     34 C         4.24608   1.303667   9.595479 C.3        1 UNL1     -0.0327
     35 O         1.925034   -1.53838   6.012559 O.2        1 UNL1     -0.4528
     36 C         -1.496434   -1.911785   4.411867 C.3        1 UNL1     0.0854
     37 C         -2.071866   -1.218305   3.117461 C.3        1 UNL1     0.0236
     38 C         -2.630044   -2.226304   2.00206 C.3        1 UNL1     0.1131
     39 C         -1.730486   -3.431906   1.512581 C.3        1 UNL1     0.0200
     40 C         -0.10942   -3.201544   1.193963 C.3        1 UNL1     0.0661
     41 C         0.548387   -1.972627   0.227183 C.3        1 UNL1     0.0091
     42 C         2.15053   -1.088021   0.353718 C.3        1 UNL1     0.0661
     43 C         5.917221   4.414954   5.97143 C.2        1 UNL1     0.2131
     44 O         6.258886   5.28218   6.754961 O.2        1 UNL1     -0.2851
     45 O         6.026139   3.443199   8.599873 O.3        1 UNL1     -0.5056
     46 O         2.815578   0.197728   3.969939 O.2        1 UNL1     -0.2836
     47 C         4.530151   -2.267343   0.60752 C.3        1 UNL1     -0.0566
     48 O         2.477788   -1.23959   -1.0847 O.3        1 UNL1     -0.3909
     49 C         -0.514818   -0.926324   -0.022495 C.3        1 UNL1     -0.0577
     50 O         0.659202   -3.354582   2.370195 O.3        1 UNL1     -0.3910
     51 O         -1.382009   -3.315915   4.359368 O.3        1 UNL1     -0.3753
     52 C         -1.273095   0.073416   2.745475 C.3        1 UNL1     -0.0564
     53 O         -3.477129   -1.558237   0.958767 O.3        1 UNL1     -0.4608
     54 C         -3.099268   -1.314516   -0.335741 C.2        1 UNL1     0.3042
     55 O         -3.677625   -1.66955   -1.362042 O.2        1 UNL1     -0.2512
     56 C         -1.863815   -0.467895   -0.452363 C.3        1 UNL1     0.0332
     57 C         -2.147069   -4.720832   2.363052 C.3        1 UNL1     -0.0567
     58 C         0.85019   0.761417   6.553848 C.3        1 UNL1     0.0210
     59 C         -0.806888   -3.914237   5.520019 C.3        1 UNL1     0.0372
     60 C         -0.180441   -1.390792   4.872181 C.2        1 UNL1     -0.0208
     61 C         0.910719   -2.039241   5.281606 C.2        1 UNL1     0.0882
     62 H         3.55746   -0.945436   1.982565 H        1 UNL1     0.0365
     63 H         5.097003   0.24551   2.60037 H        1 UNL1     0.0576
     64 H         6.690247   1.339219   0.199922 H        1 UNL1     0.0615
     65 H         6.870481   1.839982   3.278008 H        1 UNL1     0.0622
     66 H         -2.214901   -1.657492   5.203818 H        1 UNL1     0.0645
     67 H         -3.002758   -0.736028   3.463016 H        1 UNL1     0.0362
     68 H         -3.4542   -2.68783   2.567111 H        1 UNL1     0.0741
     69 H         -2.110484   -3.786924   0.563912 H        1 UNL1     0.0359
     70 H         0.100895   -4.114954   0.605313 H        1 UNL1     0.0600
     71 H         0.576892   -2.490892   -0.75136 H        1 UNL1     0.0348
     72 H         2.268866   -2.014304   0.934503 H        1 UNL1     0.0602
     73 H         -0.235735   -0.334494   4.963964 H        1 UNL1     0.0628
     74 H         1.069123   -3.112273   5.168699 H        1 UNL1     0.1022
     75 H         9.143102   5.201494   2.153106 H        1 UNL1     0.0279
     76 H         9.952355   3.925846   1.333878 H        1 UNL1     0.0279
     77 H         8.436527   4.670535   0.683492 H        1 UNL1     0.0279
     78 H         7.009808   5.510382   3.074285 H        1 UNL1     0.1553
     79 H         5.689825   4.788463   1.784827 H        1 UNL1     0.1484
     80 H         1.939215   4.214516   1.577455 H        1 UNL1     0.0317
     81 H         2.711377   4.957582   2.970848 H        1 UNL1     0.0317
     82 H         4.275844   6.244302   1.490816 H        1 UNL1     0.0428
     83 H         2.592513   6.556723   1.129575 H        1 UNL1     0.0428
     84 H         4.611313   3.817274   -1.424443 H        1 UNL1     0.0428
     85 H         5.553925   4.527115   -0.160825 H        1 UNL1     0.0428
     86 H         4.682651   2.223189   0.236236 H        1 UNL1     0.0317
     87 H         3.055078   2.708537   0.102839 H        1 UNL1     0.0317
     88 H         2.74378   6.625542   -1.642898 H        1 UNL1     0.0429
     89 H         4.108703   7.296146   -0.746512 H        1 UNL1     0.0429
     90 H         4.307132   4.984185   -2.771101 H        1 UNL1     0.0308
     91 H         5.606802   7.022728   -4.032457 H        1 UNL1     0.0233
     92 H         3.866324   6.718687   -4.264384 H        1 UNL1     0.0233
     93 H         4.40403   7.987033   -3.184213 H        1 UNL1     0.0233
     94 H         6.11545   5.955251   -0.798978 H        1 UNL1     0.0233
     95 H         6.328188   4.659131   -1.986051 H        1 UNL1     0.0233
     96 H         6.789458   6.326628   -2.39918 H        1 UNL1     0.0233
     97 H         4.553567   0.285192   9.813174 H        1 UNL1     0.0280
     98 H         4.815843   1.942953   10.282458 H        1 UNL1     0.0280
     99 H         3.173168   1.398317   9.829997 H        1 UNL1     0.0280
     100 H         6.294322   2.946693   9.352987 H        1 UNL1     0.2922
     101 H         3.857522   -3.057807   0.939775 H        1 UNL1     0.0236
     102 H         5.539259   -2.39858   0.996699 H        1 UNL1     0.0236
     103 H         4.626369   -2.420641   -0.480338 H        1 UNL1     0.0236
     104 H         3.384684   -1.598646   -1.144618 H        1 UNL1     0.2098
     105 H         -1.008625   -1.00918   -0.987431 H        1 UNL1     0.0234
     106 H         -1.253656   -0.829061   0.772857 H        1 UNL1     0.0234
     107 H         0.0   0.0   0.0 H        1 UNL1     0.0234
     108 H         1.11406   -2.505648   2.532011 H        1 UNL1     0.2098
     109 H         -0.508575   -0.116473   1.979209 H        1 UNL1     0.0234
     110 H         -1.916389   0.89974   2.424377 H        1 UNL1     0.0234
     111 H         -0.732118   0.478121   3.611214 H        1 UNL1     0.0234
     112 H         -1.456896   -0.540909   -1.465493 H        1 UNL1     0.0342
     113 H         -2.05126   0.56978   -0.180449 H        1 UNL1     0.0342
     114 H         -1.110158   -0.863175   0.242562 H        1 UNL1     0.0342
     115 H         -2.606284   -4.446039   3.322635 H        1 UNL1     0.0234
     116 H         -2.839723   -5.388489   1.846803 H        1 UNL1     0.0234
     117 H         -1.285478   -5.320762   2.70318 H        1 UNL1     0.0234
     118 H         0.358575   1.075951   5.616624 H        1 UNL1     0.0309
     119 H         0.107254   0.295873   7.209224 H        1 UNL1     0.0309
     120 H         1.120428   1.711118   7.028344 H        1 UNL1     0.0309
     121 H         -0.884051   -4.995197   5.406317 H        1 UNL1     0.0524
     122 H         0.262109   -3.66766   5.631743 H        1 UNL1     0.0524
     123 H         -1.338021   -3.59222   6.411252 H        1 UNL1     0.0524
@<TRIPOS>BOND
     1     1     2    1
     2     1    42    1
     3     2     3    2
     4     3     4    1
     5     4     5    2
     6     5     7    1
     7     6    75    1
     8     6    76    1
     9     6    77    1
    10     7     9   am
    11     9    10    1
    12    10    11    2
    13    10    43    1
    14    11    14    1
    15    11    15    1
    16    12    13   ar
    17    12    27   ar
    18    12    43    1
    19    13    14    1
    20    13    30   ar
    21    14    17    2
    22    15    16    1
    23    16    17    1
    24    16    18    1
    25    16    22    1
    26    18    19    1
    27    19    20    1
    28    20    21    1
    29    21    22    1
    30    23    24    1
    31    23    88    1
    32    23    89    1
    33    24    25    1
    34    24    26    1
    35    24    90    1
    36    25    91    1
    37    25    92    1
    38    25    93    1
    39    26    94    1
    40    26    95    1
    41    26    96    1
    42    27    28   ar
    43    28    29   ar
    44    29    30   ar
    45    29    31    1
    46    30    33    1
    47    31    32    1
    48    32    33    1
    49    32    35    1
    50    34    97    1
    51    34    98    1
    52    34    99    1
    53    35    61    1
    54    36    37    1
    55    36    60    1
    56    37    38    1
    57    38    39    1
    58    39    40    1
    59    40    41    1
    60    41    42    1
    61    45   100    1
    62    47   101    1
    63    47   102    1
    64    47   103    1
    65    48   104    1
    66    49   105    1
    67    49   106    1
    68    49   107    1
    69    50   108    1
    70    51    59    1
    71    52   109    1
    72    52   110    1
    73    52   111    1
    74    53    54    1
    75    54    55    2
    76    54    56    1
    77    56   112    1
    78    56   113    1
    79    56   114    1
    80    57   115    1
    81    57   116    1
    82    57   117    1
    83    58   118    1
    84    58   119    1
    85    58   120    1
    86    59   121    1
    87    59   122    1
    88    59   123    1
    89    60    61    2
    90     1    47    1
    91     1    62    1
    92     2    63    1
    93     3    64    1
    94     4    65    1
    95     5     6    1
    96     7     8    2
    97     9    78    1
    98    15    79    1
    99    18    80    1
   100    18    81    1
   101    19    82    1
   102    19    83    1
   103    20    23    1
   104    21    84    1
   105    21    85    1
   106    22    86    1
   107    22    87    1
   108    27    45    1
   109    28    34    1
   110    32    58    1
   111    33    46    2
   112    36    51    1
   113    36    66    1
   114    37    52    1
   115    37    67    1
   116    38    53    1
   117    38    68    1
   118    42    48    1
   119    42    72    1
   120    43    44    2
   121    60    73    1
   122    61    74    1
   123    39    69    1
   124    39    57    1
   125    40    70    1
   126    40    50    1
   127    41    71    1
   128    41    49    1
