@<TRIPOS>MOLECULE
*****
 123 128 0 0 0
SMALL
GASTEIGER

@<TRIPOS>ATOM
     1 C         -2.378241   -1.528857   3.158729 C.3        1 UNL1     0.0009
     2 C         -2.114466   -1.31142   4.980866 C.2        1 UNL1     -0.0787
     3 C         -1.702179   -1.843498   6.262645 C.2        1 UNL1     -0.0649
     4 C         -1.561032   -1.01925   7.734735 C.2        1 UNL1     -0.0542
     5 C         -0.972794   -1.036767   9.023435 C.2        1 UNL1     0.0115
     6 C         -0.176622   -1.912664   10.029535 C.3        1 UNL1     -0.0348
     7 C         -0.905129   0.328498   9.865136 C.2        1 UNL1     0.2441
     8 O         -1.673009   0.58326   10.782732 O.2        1 UNL1     -0.2702
     9 N         0.254018   1.094802   9.652283 N.am        1 UNL1     -0.2772
     10 C         0.075736   1.950128   8.589289 C.2        1 UNL1     0.1049
     11 C         0.274241   1.436152   7.38902 C.2        1 UNL1     0.0801
     12 C         -1.511055   3.638326   7.646199 C.ar        1 UNL1     0.0753
     13 C         -1.422621   2.91693   6.413164 C.ar        1 UNL1     0.0305
     14 C         -0.42452   1.86939   6.209437 C.2        1 UNL1     0.0924
     15 N         0.827302   0.264389   7.031776 N.pl3        1 UNL1     -0.3170
     16 C         0.963796   0.261483   5.59943 C.3        1 UNL1     0.1275
     17 N         -0.135797   1.173753   5.113237 N.2        1 UNL1     -0.2557
     18 C         2.275925   0.966266   5.268825 C.3        1 UNL1     0.0016
     19 C         3.404284   0.265257   6.008408 C.3        1 UNL1     0.0026
     20 N         3.43991   -1.130167   5.593016 N.3        1 UNL1     -0.3018
     21 C         2.199593   -1.876543   5.814164 C.3        1 UNL1     0.0026
     22 C         1.080654   -1.157475   5.058644 C.3        1 UNL1     0.0016
     23 C         4.651814   -1.810298   6.004543 C.3        1 UNL1     0.0012
     24 C         5.639136   -0.816479   6.636425 C.3        1 UNL1     -0.0339
     25 C         5.25428   -0.487613   8.088248 C.3        1 UNL1     -0.0615
     26 C         7.055006   -1.358006   6.542411 C.3        1 UNL1     -0.0615
     27 C         -2.382466   4.7152   7.791465 C.ar        1 UNL1     0.1347
     28 C         -3.182945   5.18639   6.766153 C.ar        1 UNL1     0.0342
     29 C         -3.115075   4.430354   5.57663 C.ar        1 UNL1     0.1435
     30 C         -2.273512   3.327196   5.428187 C.ar        1 UNL1     0.0774
     31 O         -3.751253   4.826393   4.452603 O.3        1 UNL1     -0.4436
     32 C         -3.08852   4.120284   3.392854 C.3        1 UNL1     0.3143
     33 C         -2.462247   2.909479   4.05463 C.2        1 UNL1     0.2504
     34 C         -3.949345   6.479728   6.769151 C.3        1 UNL1     -0.0327
     35 O         -4.103084   3.632941   2.506057 O.2        1 UNL1     -0.4528
     36 C         -2.511787   3.528267   -0.938491 C.3        1 UNL1     0.0854
     37 C         -1.216098   2.765385   -1.414645 C.3        1 UNL1     0.0236
     38 C         -1.430228   1.785367   -2.665827 C.3        1 UNL1     0.1131
     39 C         -2.601866   0.7229   -2.639433 C.3        1 UNL1     0.0200
     40 C         -2.900854   -0.171102   -1.263277 C.3        1 UNL1     0.0661
     41 C         -1.745743   -1.030483   -0.366175 C.3        1 UNL1     0.0091
     42 C         -1.655129   -1.380138   1.432418 C.3        1 UNL1     0.0661
     43 C         -0.579386   3.258314   8.736999 C.2        1 UNL1     0.2131
     44 O         -0.275614   4.00182   9.652237 O.2        1 UNL1     -0.2851
     45 O         -2.440629   5.33433   9.038354 O.3        1 UNL1     -0.5056
     46 O         -2.198971   1.834418   3.563932 O.2        1 UNL1     -0.2836
     47 C         -3.648564   -2.381546   2.895705 C.3        1 UNL1     -0.0566
     48 O         -1.359622   -2.822215   1.252954 O.3        1 UNL1     -0.3909
     49 C         -0.365131   -0.591328   -0.800394 C.3        1 UNL1     -0.0577
     50 O         -3.76896   0.525315   -0.392003 O.3        1 UNL1     -0.3910
     51 O         -3.719535   3.130631   -1.54731 O.3        1 UNL1     -0.3753
     52 C         -0.287813   2.389619   -0.213796 C.3        1 UNL1     -0.0564
     53 O         -0.148555   1.350513   -3.31432 O.3        1 UNL1     -0.4608
     54 C         0.097791   0.106348   -3.833258 C.2        1 UNL1     0.3042
     55 O         0.761487   -0.796682   -3.325435 O.2        1 UNL1     -0.2512
     56 C         -0.590532   -0.145395   -5.144574 C.3        1 UNL1     0.0332
     57 C         -3.854779   1.367705   -3.396143 C.3        1 UNL1     -0.0567
     58 C         -1.961785   5.050076   2.885426 C.3        1 UNL1     0.0210
     59 C         -4.26085   4.069983   -2.474919 C.3        1 UNL1     0.0372
     60 C         -2.746418   3.512553   0.531156 C.2        1 UNL1     -0.0208
     61 C         -3.862842   3.289916   1.225977 C.2        1 UNL1     0.0882
     62 H         -2.688118   -0.478637   3.097697 H        1 UNL1     0.0365
     63 H         -2.502345   -0.300646   5.123539 H        1 UNL1     0.0576
     64 H         -1.270295   -2.84247   6.355594 H        1 UNL1     0.0615
     65 H         -2.087662   -0.077552   7.557676 H        1 UNL1     0.0622
     66 H         -2.326317   4.578881   -1.202798 H        1 UNL1     0.0645
     67 H         -0.587914   3.556188   -1.860264 H        1 UNL1     0.0362
     68 H         -1.722115   2.522689   -3.429162 H        1 UNL1     0.0741
     69 H         -2.396225   -0.040386   -3.378023 H        1 UNL1     0.0359
     70 H         -3.527002   -0.976981   -1.691713 H        1 UNL1     0.0600
     71 H         -1.821291   -2.022314   -0.853536 H        1 UNL1     0.0348
     72 H         -2.702315   -1.114134   1.227582 H        1 UNL1     0.0602
     73 H         -1.869425   3.845501   1.028425 H        1 UNL1     0.0628
     74 H         -4.785   2.892539   0.80059 H        1 UNL1     0.1022
     75 H         -0.703951   -2.880406   10.209631 H        1 UNL1     0.0279
     76 H         0.811102   -2.239587   9.712371 H        1 UNL1     0.0279
     77 H         -0.156489   -1.484933   11.04262 H        1 UNL1     0.0279
     78 H         1.03294   0.480611   9.423968 H        1 UNL1     0.1553
     79 H         1.415154   -0.280954   7.63507 H        1 UNL1     0.1484
     80 H         2.431823   0.940887   4.183552 H        1 UNL1     0.0317
     81 H         2.235572   2.022717   5.555068 H        1 UNL1     0.0317
     82 H         3.291051   0.350773   7.099177 H        1 UNL1     0.0428
     83 H         4.330199   0.784891   5.759992 H        1 UNL1     0.0428
     84 H         2.226191   -2.897717   5.421344 H        1 UNL1     0.0428
     85 H         1.986686   -2.007726   6.884107 H        1 UNL1     0.0428
     86 H         0.222574   -1.799571   5.132128 H        1 UNL1     0.0317
     87 H         1.299734   -1.148643   3.983925 H        1 UNL1     0.0317
     88 H         4.382512   -2.562158   6.757855 H        1 UNL1     0.0429
     89 H         5.112667   -2.346771   5.165147 H        1 UNL1     0.0429
     90 H         5.634743   0.113052   6.054904 H        1 UNL1     0.0308
     91 H         4.169188   -0.408097   8.203809 H        1 UNL1     0.0233
     92 H         5.632565   -1.252205   8.770823 H        1 UNL1     0.0233
     93 H         5.680966   0.463841   8.428117 H        1 UNL1     0.0233
     94 H         7.190935   -2.184485   7.248308 H        1 UNL1     0.0233
     95 H         7.242604   -1.740588   5.535237 H        1 UNL1     0.0233
     96 H         7.793984   -0.584504   6.769514 H        1 UNL1     0.0233
     97 H         -3.65711   7.12842   5.948768 H        1 UNL1     0.0280
     98 H         -5.029757   6.320798   6.656424 H        1 UNL1     0.0280
     99 H         -3.766114   7.015087   7.715149 H        1 UNL1     0.0280
     100 H         -1.697951   5.169538   9.592335 H        1 UNL1     0.2922
     101 H         -3.394974   -3.440713   2.934606 H        1 UNL1     0.0236
     102 H         -4.158429   -2.116806   1.969998 H        1 UNL1     0.0236
     103 H         -4.408375   -2.246577   3.683527 H        1 UNL1     0.0236
     104 H         -1.226409   -2.979348   0.297688 H        1 UNL1     0.2098
     105 H         0.336377   -1.406573   -0.958745 H        1 UNL1     0.0234
     106 H         -0.350533   0.090171   -1.650848 H        1 UNL1     0.0234
     107 H         0.0   0.0   0.0 H        1 UNL1     0.0234
     108 H         -3.93627   -0.054817   0.375606 H        1 UNL1     0.2098
     109 H         0.062465   3.275426   0.334258 H        1 UNL1     0.0234
     110 H         -0.752261   1.686039   0.485492 H        1 UNL1     0.0234
     111 H         0.619397   1.870471   -0.550548 H        1 UNL1     0.0234
     112 H         -0.716398   -1.221444   -5.298269 H        1 UNL1     0.0342
     113 H         -1.545676   0.373261   -5.211947 H        1 UNL1     0.0342
     114 H         0.053163   0.236655   -5.94885 H        1 UNL1     0.0342
     115 H         -4.434737   0.611741   -3.943278 H        1 UNL1     0.0234
     116 H         -4.545575   1.898726   -2.738217 H        1 UNL1     0.0234
     117 H         -3.570294   2.051399   -4.214417 H        1 UNL1     0.0234
     118 H         -2.170164   5.440039   1.873737 H        1 UNL1     0.0309
     119 H         -1.761731   5.88965   3.558698 H        1 UNL1     0.0309
     120 H         -1.007692   4.525954   2.76251 H        1 UNL1     0.0309
     121 H         -4.501947   3.528766   -3.389421 H        1 UNL1     0.0524
     122 H         -5.192223   4.531886   -2.107186 H        1 UNL1     0.0524
     123 H         -3.537039   4.852988   -2.682514 H        1 UNL1     0.0524
@<TRIPOS>BOND
     1     1     2    1
     2     1    42    1
     3     2     3    2
     4     3     4    1
     5     4     5    2
     6     5     7    1
     7     6    75    1
     8     6    76    1
     9     6    77    1
    10     7     9   am
    11     9    10    1
    12    10    11    2
    13    10    43    1
    14    11    14    1
    15    11    15    1
    16    12    13   ar
    17    12    27   ar
    18    12    43    1
    19    13    14    1
    20    13    30   ar
    21    14    17    2
    22    15    16    1
    23    16    17    1
    24    16    18    1
    25    16    22    1
    26    18    19    1
    27    19    20    1
    28    20    21    1
    29    21    22    1
    30    23    24    1
    31    23    88    1
    32    23    89    1
    33    24    25    1
    34    24    26    1
    35    24    90    1
    36    25    91    1
    37    25    92    1
    38    25    93    1
    39    26    94    1
    40    26    95    1
    41    26    96    1
    42    27    28   ar
    43    28    29   ar
    44    29    30   ar
    45    29    31    1
    46    30    33    1
    47    31    32    1
    48    32    33    1
    49    32    35    1
    50    34    97    1
    51    34    98    1
    52    34    99    1
    53    35    61    1
    54    36    37    1
    55    36    60    1
    56    37    38    1
    57    38    39    1
    58    39    40    1
    59    40    41    1
    60    41    42    1
    61    45   100    1
    62    47   101    1
    63    47   102    1
    64    47   103    1
    65    48   104    1
    66    49   105    1
    67    49   106    1
    68    49   107    1
    69    50   108    1
    70    51    59    1
    71    52   109    1
    72    52   110    1
    73    52   111    1
    74    53    54    1
    75    54    55    2
    76    54    56    1
    77    56   112    1
    78    56   113    1
    79    56   114    1
    80    57   115    1
    81    57   116    1
    82    57   117    1
    83    58   118    1
    84    58   119    1
    85    58   120    1
    86    59   121    1
    87    59   122    1
    88    59   123    1
    89    60    61    2
    90     1    47    1
    91     1    62    1
    92     2    63    1
    93     3    64    1
    94     4    65    1
    95     5     6    1
    96     7     8    2
    97     9    78    1
    98    15    79    1
    99    18    80    1
   100    18    81    1
   101    19    82    1
   102    19    83    1
   103    20    23    1
   104    21    84    1
   105    21    85    1
   106    22    86    1
   107    22    87    1
   108    27    45    1
   109    28    34    1
   110    32    58    1
   111    33    46    2
   112    36    51    1
   113    36    66    1
   114    37    52    1
   115    37    67    1
   116    38    53    1
   117    38    68    1
   118    42    48    1
   119    42    72    1
   120    43    44    2
   121    60    73    1
   122    61    74    1
   123    39    69    1
   124    39    57    1
   125    40    70    1
   126    40    50    1
   127    41    71    1
   128    41    49    1
