@<TRIPOS>MOLECULE
*****
 123 128 0 0 0
SMALL
GASTEIGER

@<TRIPOS>ATOM
     1 C         -3.850676   -0.075945   1.487225 C.3        1 UNL1     0.0009
     2 C         -5.262888   -1.14715   0.943888 C.2        1 UNL1     -0.0787
     3 C         -6.445724   -1.35099   0.134324 C.2        1 UNL1     -0.0649
     4 C         -7.361668   -2.76508   -0.032265 C.2        1 UNL1     -0.0542
     5 C         -8.297509   -3.453452   -0.843082 C.2        1 UNL1     0.0115
     6 C         -9.25006   -3.309183   -2.061752 C.3        1 UNL1     -0.0348
     7 C         -8.483589   -5.035294   -0.642729 C.2        1 UNL1     0.2441
     8 O         -9.427206   -5.522688   -0.035639 O.2        1 UNL1     -0.2702
     9 N         -7.635448   -5.832594   -1.430841 N.am        1 UNL1     -0.2772
     10 C         -6.443877   -6.055274   -0.779769 C.2        1 UNL1     0.1049
     11 C         -5.536357   -5.1015   -0.884393 C.2        1 UNL1     0.0801
     12 C         -5.488171   -6.776898   1.416414 C.ar        1 UNL1     0.0753
     13 C         -4.666743   -5.606409   1.35462 C.ar        1 UNL1     0.0305
     14 C         -4.571506   -4.801797   0.13865 C.2        1 UNL1     0.0924
     15 N         -5.49782   -4.031112   -1.696373 N.pl3        1 UNL1     -0.3170
     16 C         -4.21353   -3.402876   -1.534599 C.3        1 UNL1     0.1275
     17 N         -3.794817   -3.755626   -0.128195 N.2        1 UNL1     -0.2557
     18 C         -3.237913   -4.123377   -2.460207 C.3        1 UNL1     0.0016
     19 C         -3.78633   -4.075134   -3.877423 C.3        1 UNL1     0.0026
     20 N         -3.94834   -2.681809   -4.269121 N.3        1 UNL1     -0.3018
     21 C         -4.822006   -1.889532   -3.40115 C.3        1 UNL1     0.0026
     22 C         -4.249857   -1.948049   -1.983717 C.3        1 UNL1     0.0016
     23 C         -4.177657   -2.518716   -5.690901 C.3        1 UNL1     0.0012
     24 C         -2.901043   -2.842187   -6.482974 C.3        1 UNL1     -0.0339
     25 C         -3.128203   -4.001908   -7.466592 C.3        1 UNL1     -0.0615
     26 C         -2.399272   -1.596968   -7.19321 C.3        1 UNL1     -0.0615
     27 C         -5.481003   -7.605382   2.536094 C.ar        1 UNL1     0.1347
     28 C         -4.667909   -7.388802   3.634284 C.ar        1 UNL1     0.0342
     29 C         -3.904022   -6.204009   3.571774 C.ar        1 UNL1     0.1435
     30 C         -3.928029   -5.345364   2.47206 C.ar        1 UNL1     0.0774
     31 O         -2.981548   -5.909714   4.513813 O.3        1 UNL1     -0.4436
     32 C         -2.120879   -4.945026   3.889714 C.3        1 UNL1     0.3143
     33 C         -2.957291   -4.31959   2.79178 C.2        1 UNL1     0.2504
     34 C         -4.421065   -8.361089   4.754027 C.3        1 UNL1     -0.0327
     35 O         -1.862801   -3.917326   4.854327 O.2        1 UNL1     -0.4528
     36 C         1.592195   -2.571516   4.041992 C.3        1 UNL1     0.0854
     37 C         2.127595   -1.948664   2.695543 C.3        1 UNL1     0.0236
     38 C         2.769134   -0.485615   2.83576 C.3        1 UNL1     0.1131
     39 C         1.965415   0.656162   3.579165 C.3        1 UNL1     0.0200
     40 C         0.334962   0.864084   3.29486 C.3        1 UNL1     0.0661
     41 C         -0.402013   0.972707   1.770826 C.3        1 UNL1     0.0091
     42 C         -2.065999   0.438649   1.212851 C.3        1 UNL1     0.0661
     43 C         -6.281232   -7.128397   0.212353 C.2        1 UNL1     0.2131
     44 O         -6.693292   -8.250819   -0.018114 O.2        1 UNL1     -0.2851
     45 O         -6.343863   -8.699415   2.534607 O.3        1 UNL1     -0.5056
     46 O         -2.858741   -3.215009   2.305938 O.2        1 UNL1     -0.2836
     47 C         -4.354835   1.035167   2.447035 C.3        1 UNL1     -0.0566
     48 O         -2.367289   1.71356   0.517911 O.3        1 UNL1     -0.3909
     49 C         0.583768   0.516415   0.718435 C.3        1 UNL1     -0.0577
     50 O         -0.431683   0.034308   4.144243 O.3        1 UNL1     -0.3910
     51 O         1.581811   -1.71014   5.157946 O.3        1 UNL1     -0.3753
     52 C         1.23967   -2.353327   1.473747 C.3        1 UNL1     -0.0564
     53 O         3.574878   -0.066152   1.641125 O.3        1 UNL1     -0.4608
     54 C         3.596615   1.192122   1.098718 C.2        1 UNL1     0.3042
     55 O         3.020495   1.577221   0.082046 O.2        1 UNL1     -0.2512
     56 C         4.382679   2.182946   1.909325 C.3        1 UNL1     0.0332
     57 C         2.467366   0.689134   5.097431 C.3        1 UNL1     -0.0567
     58 C         -0.965215   -5.743572   3.242958 C.3        1 UNL1     0.0210
     59 C         0.3733   -1.726213   5.916305 C.3        1 UNL1     0.0372
     60 C         0.237069   -3.181183   3.95772 C.2        1 UNL1     -0.0208
     61 C         -0.807384   -3.083804   4.781358 C.2        1 UNL1     0.0882
     62 H         -3.495307   -0.898333   2.119761 H        1 UNL1     0.0365
     63 H         -5.12414   -2.012705   1.595067 H        1 UNL1     0.0576
     64 H         -6.770158   -0.611751   -0.601459 H        1 UNL1     0.0615
     65 H         -7.016506   -3.397546   0.79013 H        1 UNL1     0.0622
     66 H         2.282323   -3.399572   4.256684 H        1 UNL1     0.0645
     67 H         3.017128   -2.556158   2.454207 H        1 UNL1     0.0362
     68 H         3.619478   -0.719965   3.494181 H        1 UNL1     0.0741
     69 H         2.379648   1.614515   3.295653 H        1 UNL1     0.0359
     70 H         0.198069   1.882559   3.705992 H        1 UNL1     0.0600
     71 H         -0.382869   2.070537   1.624673 H        1 UNL1     0.0348
     72 H         -2.12154   0.508212   2.308931 H        1 UNL1     0.0602
     73 H         0.213673   -3.870176   3.150261 H        1 UNL1     0.0628
     74 H         -0.88538   -2.362718   5.595722 H        1 UNL1     0.1022
     75 H         -9.858936   -2.377081   -1.97521 H        1 UNL1     0.0279
     76 H         -8.778509   -3.191461   -3.034814 H        1 UNL1     0.0279
     77 H         -10.034732   -4.079631   -2.081738 H        1 UNL1     0.0279
     78 H         -7.423289   -5.349536   -2.301312 H        1 UNL1     0.1553
     79 H         -6.041387   -3.948978   -2.535851 H        1 UNL1     0.1484
     80 H         -2.256902   -3.637632   -2.393611 H        1 UNL1     0.0317
     81 H         -3.095051   -5.162722   -2.145559 H        1 UNL1     0.0317
     82 H         -4.735471   -4.624014   -3.965592 H        1 UNL1     0.0428
     83 H         -3.076243   -4.596024   -4.520463 H        1 UNL1     0.0428
     84 H         -4.863382   -0.829517   -3.670347 H        1 UNL1     0.0428
     85 H         -5.867814   -2.221139   -3.461476 H        1 UNL1     0.0428
     86 H         -4.83342   -1.254575   -1.407058 H        1 UNL1     0.0317
     87 H         -3.244713   -1.509298   -1.966949 H        1 UNL1     0.0317
     88 H         -4.964144   -3.222631   -5.992953 H        1 UNL1     0.0429
     89 H         -4.542602   -1.509851   -5.922807 H        1 UNL1     0.0429
     90 H         -2.106955   -3.128342   -5.783151 H        1 UNL1     0.0308
     91 H         -4.025952   -4.571826   -7.209021 H        1 UNL1     0.0233
     92 H         -3.221503   -3.628545   -8.48909 H        1 UNL1     0.0233
     93 H         -2.292312   -4.711869   -7.475377 H        1 UNL1     0.0233
     94 H         -2.99583   -1.408765   -8.092396 H        1 UNL1     0.0233
     95 H         -2.495829   -0.7278   -6.536563 H        1 UNL1     0.0233
     96 H         -1.35163   -1.701175   -7.489107 H        1 UNL1     0.0233
     97 H         -3.775799   -9.179283   4.448377 H        1 UNL1     0.0280
     98 H         -3.921998   -7.888416   5.610046 H        1 UNL1     0.0280
     99 H         -5.38045   -8.785504   5.092474 H        1 UNL1     0.0280
     100 H         -6.056386   -9.424071   2.00749 H        1 UNL1     0.2922
     101 H         -4.078875   0.78861   3.472077 H        1 UNL1     0.0236
     102 H         -5.420988   1.236199   2.347595 H        1 UNL1     0.0236
     103 H         -3.866641   2.004452   2.251212 H        1 UNL1     0.0236
     104 H         -2.940536   2.242212   1.10688 H        1 UNL1     0.2098
     105 H         1.101628   1.324402   0.207759 H        1 UNL1     0.0234
     106 H         1.297076   -0.234565   1.057769 H        1 UNL1     0.0234
     107 H         0.0   -0.0   0.0 H        1 UNL1     0.0234
     108 H         -0.50111   0.487167   5.00672 H        1 UNL1     0.2098
     109 H         1.703167   -2.082456   0.514835 H        1 UNL1     0.0234
     110 H         0.976686   -3.416589   1.466211 H        1 UNL1     0.0234
     111 H         0.269425   -1.83924   1.490635 H        1 UNL1     0.0234
     112 H         4.342495   3.167807   1.434162 H        1 UNL1     0.0342
     113 H         4.038492   2.232684   2.941267 H        1 UNL1     0.0342
     114 H         5.432317   1.858575   1.923788 H        1 UNL1     0.0342
     115 H         3.516046   0.374029   5.187806 H        1 UNL1     0.0234
     116 H         2.37615   1.667188   5.574021 H        1 UNL1     0.0234
     117 H         1.965696   -0.052312   5.74282 H        1 UNL1     0.0234
     118 H         -0.024806   -5.647526   3.813409 H        1 UNL1     0.0309
     119 H         -1.19747   -6.805152   3.111394 H        1 UNL1     0.0309
     120 H         -0.697835   -5.366321   2.249834 H        1 UNL1     0.0309
     121 H         -0.30437   -0.997634   5.47213 H        1 UNL1     0.0524
     122 H         -0.127627   -2.708094   5.884373 H        1 UNL1     0.0524
     123 H         0.575822   -1.467226   6.951682 H        1 UNL1     0.0524
@<TRIPOS>BOND
     1     1     2    1
     2     1    42    1
     3     2     3    2
     4     3     4    1
     5     4     5    2
     6     5     7    1
     7     6    75    1
     8     6    76    1
     9     6    77    1
    10     7     9   am
    11     9    10    1
    12    10    11    2
    13    10    43    1
    14    11    14    1
    15    11    15    1
    16    12    13   ar
    17    12    27   ar
    18    12    43    1
    19    13    14    1
    20    13    30   ar
    21    14    17    2
    22    15    16    1
    23    16    17    1
    24    16    18    1
    25    16    22    1
    26    18    19    1
    27    19    20    1
    28    20    21    1
    29    21    22    1
    30    23    24    1
    31    23    88    1
    32    23    89    1
    33    24    25    1
    34    24    26    1
    35    24    90    1
    36    25    91    1
    37    25    92    1
    38    25    93    1
    39    26    94    1
    40    26    95    1
    41    26    96    1
    42    27    28   ar
    43    28    29   ar
    44    29    30   ar
    45    29    31    1
    46    30    33    1
    47    31    32    1
    48    32    33    1
    49    32    35    1
    50    34    97    1
    51    34    98    1
    52    34    99    1
    53    35    61    1
    54    36    37    1
    55    36    60    1
    56    37    38    1
    57    38    39    1
    58    39    40    1
    59    40    41    1
    60    41    42    1
    61    45   100    1
    62    47   101    1
    63    47   102    1
    64    47   103    1
    65    48   104    1
    66    49   105    1
    67    49   106    1
    68    49   107    1
    69    50   108    1
    70    51    59    1
    71    52   109    1
    72    52   110    1
    73    52   111    1
    74    53    54    1
    75    54    55    2
    76    54    56    1
    77    56   112    1
    78    56   113    1
    79    56   114    1
    80    57   115    1
    81    57   116    1
    82    57   117    1
    83    58   118    1
    84    58   119    1
    85    58   120    1
    86    59   121    1
    87    59   122    1
    88    59   123    1
    89    60    61    2
    90     1    47    1
    91     1    62    1
    92     2    63    1
    93     3    64    1
    94     4    65    1
    95     5     6    1
    96     7     8    2
    97     9    78    1
    98    15    79    1
    99    18    80    1
   100    18    81    1
   101    19    82    1
   102    19    83    1
   103    20    23    1
   104    21    84    1
   105    21    85    1
   106    22    86    1
   107    22    87    1
   108    27    45    1
   109    28    34    1
   110    32    58    1
   111    33    46    2
   112    36    51    1
   113    36    66    1
   114    37    52    1
   115    37    67    1
   116    38    53    1
   117    38    68    1
   118    42    48    1
   119    42    72    1
   120    43    44    2
   121    60    73    1
   122    61    74    1
   123    39    69    1
   124    39    57    1
   125    40    70    1
   126    40    50    1
   127    41    71    1
   128    41    49    1
