@<TRIPOS>MOLECULE
*****
 123 128 0 0 0
SMALL
GASTEIGER

@<TRIPOS>ATOM
     1 C         4.993018   2.190134   0.531331 C.3        1 UNL1     0.0009
     2 C         6.396085   3.04034   -0.332144 C.2        1 UNL1     -0.0787
     3 C         7.710646   2.995479   -0.937093 C.2        1 UNL1     -0.0649
     4 C         8.517502   4.231838   -1.765802 C.2        1 UNL1     -0.0542
     5 C         9.55178   4.529164   -2.687184 C.2        1 UNL1     0.0115
     6 C         10.765586   3.930654   -3.449932 C.3        1 UNL1     -0.0348
     7 C         9.552872   5.957711   -3.419467 C.2        1 UNL1     0.2441
     8 O         10.288703   6.876132   -3.085429 O.2        1 UNL1     -0.2702
     9 N         8.842249   5.998709   -4.63169 N.am        1 UNL1     -0.2772
     10 C         7.519249   6.29972   -4.402813 C.2        1 UNL1     0.1049
     11 C         6.743417   5.288123   -4.057881 C.2        1 UNL1     0.0801
     12 C         6.030889   7.904363   -3.191516 C.ar        1 UNL1     0.0753
     13 C         5.347139   6.758157   -2.674498 C.ar        1 UNL1     0.0305
     14 C         5.599787   5.416772   -3.195943 C.2        1 UNL1     0.0924
     15 N         6.981517   3.965777   -4.093028 N.pl3        1 UNL1     -0.3170
     16 C         5.751993   3.289322   -3.775325 C.3        1 UNL1     0.1275
     17 N         4.995632   4.267049   -2.909478 N.2        1 UNL1     -0.2557
     18 C         4.955529   3.166767   -5.070828 C.3        1 UNL1     0.0016
     19 C         5.814419   2.455584   -6.104325 C.3        1 UNL1     0.0026
     20 N         6.178629   1.143774   -5.587088 N.3        1 UNL1     -0.3018
     21 C         6.895395   1.156012   -4.310191 C.3        1 UNL1     0.0026
     22 C         6.012566   1.870883   -3.285756 C.3        1 UNL1     0.0016
     23 C         6.738734   0.273218   -6.601512 C.3        1 UNL1     0.0012
     24 C         5.653452   -0.157372   -7.600767 C.3        1 UNL1     -0.0339
     25 C         5.894227   0.454278   -8.99072 C.3        1 UNL1     -0.0615
     26 C         5.57455   -1.672854   -7.662966 C.3        1 UNL1     -0.0615
     27 C         5.69882   9.191458   -2.775301 C.ar        1 UNL1     0.1347
     28 C         4.678251   9.45924   -1.880436 C.ar        1 UNL1     0.0342
     29 C         4.051691   8.312576   -1.347757 C.ar        1 UNL1     0.1435
     30 C         4.398097   7.015444   -1.728117 C.ar        1 UNL1     0.0774
     31 O         2.967162   8.409393   -0.548114 O.3        1 UNL1     -0.4436
     32 C         2.356032   7.11174   -0.607178 C.3        1 UNL1     0.3143
     33 C         3.470368   6.16701   -1.009615 C.2        1 UNL1     0.2504
     34 C         4.101514   10.814835   -1.580708 C.3        1 UNL1     -0.0327
     35 O         1.972868   6.76017   0.728051 O.2        1 UNL1     -0.4528
     36 C         -1.07973   4.530847   0.381853 C.3        1 UNL1     0.0854
     37 C         -1.239704   3.176545   -0.410484 C.3        1 UNL1     0.0236
     38 C         -1.77023   1.940917   0.463307 C.3        1 UNL1     0.1131
     39 C         -1.063382   1.587451   1.833598 C.3        1 UNL1     0.0200
     40 C         0.600553   1.588574   1.950888 C.3        1 UNL1     0.0661
     41 C         1.671788   0.807311   0.892733 C.3        1 UNL1     0.0091
     42 C         3.367844   1.264919   0.364156 C.3        1 UNL1     0.0661
     43 C         7.044731   7.683402   -4.25244 C.2        1 UNL1     0.2131
     44 O         7.40202   8.547514   -5.032434 O.2        1 UNL1     -0.2851
     45 O         6.44364   10.249139   -3.29298 O.3        1 UNL1     -0.5056
     46 O         3.578853   4.984899   -0.771503 O.2        1 UNL1     -0.2836
     47 C         5.357395   1.920934   2.016168 C.3        1 UNL1     -0.0566
     48 O         3.926221   -0.090439   0.588513 O.3        1 UNL1     -0.3909
     49 C         0.916688   0.398851   -0.352449 C.3        1 UNL1     -0.0577
     50 O         1.080568   2.882465   2.256101 O.3        1 UNL1     -0.3910
     51 O         -1.251018   4.45117   1.778901 O.3        1 UNL1     -0.3753
     52 C         -0.134296   3.007831   -1.503442 C.3        1 UNL1     -0.0564
     53 O         -2.244226   0.780941   -0.362593 O.3        1 UNL1     -0.4608
     54 C         -2.383164   -0.507749   0.08227 C.2        1 UNL1     0.3042
     55 O         -1.626454   -1.455353   -0.125759 O.2        1 UNL1     -0.2512
     56 C         -3.582414   -0.713869   0.963194 C.3        1 UNL1     0.0332
     57 C         -1.89335   2.297926   3.001739 C.3        1 UNL1     -0.0567
     58 C         1.314797   7.170184   -1.749081 C.3        1 UNL1     0.0210
     59 C         -2.460519   5.02856   2.268383 C.3        1 UNL1     0.0372
     60 C         0.202422   5.249201   0.146878 C.2        1 UNL1     -0.0208
     61 C         1.036191   5.833801   1.008166 C.2        1 UNL1     0.0882
     62 H         4.434666   3.133845   0.512261 H        1 UNL1     0.0365
     63 H         6.039965   4.072642   -0.33148 H        1 UNL1     0.0576
     64 H         8.255477   2.055939   -1.053414 H        1 UNL1     0.0615
     65 H         7.941865   5.128563   -1.520836 H        1 UNL1     0.0622
     66 H         -1.868107   5.181621   -0.02188 H        1 UNL1     0.0645
     67 H         -2.098977   3.357235   -1.079483 H        1 UNL1     0.0362
     68 H         -2.764891   2.323726   0.738316 H        1 UNL1     0.0741
     69 H         -1.319574   0.572181   2.105628 H        1 UNL1     0.0359
     70 H         0.72582   1.018166   2.891102 H        1 UNL1     0.0600
     71 H         1.77935   -0.166034   1.410408 H        1 UNL1     0.0348
     72 H         3.177926   1.824423   1.291627 H        1 UNL1     0.0602
     73 H         0.350782   5.366263   -0.897887 H        1 UNL1     0.0628
     74 H         0.987325   5.714857   2.091079 H        1 UNL1     0.1022
     75 H         10.845811   2.833223   -3.259557 H        1 UNL1     0.0279
     76 H         10.727319   3.97784   -4.535924 H        1 UNL1     0.0279
     77 H         11.730348   4.289076   -3.06203 H        1 UNL1     0.0279
     78 H         8.875585   5.084887   -5.078787 H        1 UNL1     0.1553
     79 H         7.706964   3.544923   -4.643973 H        1 UNL1     0.1484
     80 H         4.029827   2.613872   -4.870458 H        1 UNL1     0.0317
     81 H         4.65738   4.153294   -5.44167 H        1 UNL1     0.0317
     82 H         6.708782   3.041317   -6.363061 H        1 UNL1     0.0428
     83 H         5.228041   2.380447   -7.020604 H        1 UNL1     0.0428
     84 H         7.086495   0.157513   -3.904861 H        1 UNL1     0.0428
     85 H         7.89556   1.600533   -4.407086 H        1 UNL1     0.0428
     86 H         6.505928   1.744338   -2.33994 H        1 UNL1     0.0317
     87 H         5.070831   1.323718   -3.155982 H        1 UNL1     0.0317
     88 H         7.510928   0.833923   -7.144301 H        1 UNL1     0.0429
     89 H         7.230885   -0.598533   -6.151386 H        1 UNL1     0.0429
     90 H         4.675611   0.178744   -7.235985 H        1 UNL1     0.0308
     91 H         6.940137   0.351101   -9.294907 H        1 UNL1     0.0233
     92 H         5.254785   -0.021302   -9.738079 H        1 UNL1     0.0233
     93 H         5.657773   1.524749   -9.022589 H        1 UNL1     0.0233
     94 H         5.11567   -1.988784   -8.606074 H        1 UNL1     0.0233
     95 H         6.579574   -2.101528   -7.616831 H        1 UNL1     0.0233
     96 H         4.980728   -2.075729   -6.837718 H        1 UNL1     0.0233
     97 H         3.036497   10.859432   -1.788028 H        1 UNL1     0.0280
     98 H         4.213506   11.087605   -0.523206 H        1 UNL1     0.0280
     99 H         4.60603   11.575422   -2.198822 H        1 UNL1     0.0280
     100 H         7.376135   10.131997   -3.244469 H        1 UNL1     0.2922
     101 H         4.44794   1.759085   2.594401 H        1 UNL1     0.0236
     102 H         5.985696   2.697587   2.450945 H        1 UNL1     0.0236
     103 H         5.936098   0.990149   2.138384 H        1 UNL1     0.0236
     104 H         4.23532   -0.132514   1.514612 H        1 UNL1     0.2098
     105 H         0.685092   1.219542   -1.02672 H        1 UNL1     0.0234
     106 H         1.361977   -0.429052   -0.90401 H        1 UNL1     0.0234
     107 H         0.0   -0.0   0.0 H        1 UNL1     0.0234
     108 H         1.000327   3.420458   1.444995 H        1 UNL1     0.2098
     109 H         -0.167415   3.808355   -2.255623 H        1 UNL1     0.0234
     110 H         0.876182   2.938405   -1.086479 H        1 UNL1     0.0234
     111 H         -0.256906   2.070153   -2.061719 H        1 UNL1     0.0234
     112 H         -3.62278   -1.754383   1.299419 H        1 UNL1     0.0342
     113 H         -3.591206   -0.029069   1.809843 H        1 UNL1     0.0342
     114 H         -4.484031   -0.517439   0.366815 H        1 UNL1     0.0342
     115 H         -2.963448   2.054489   2.948679 H        1 UNL1     0.0234
     116 H         -1.548951   2.046926   4.006944 H        1 UNL1     0.0234
     117 H         -1.920514   3.397843   2.915793 H        1 UNL1     0.0234
     118 H         0.279177   7.132977   -1.368144 H        1 UNL1     0.0309
     119 H         1.429189   8.050007   -2.390195 H        1 UNL1     0.0309
     120 H         1.370748   6.301242   -2.413848 H        1 UNL1     0.0309
     121 H         -2.289016   5.325798   3.302594 H        1 UNL1     0.0524
     122 H         -2.749839   5.932428   1.706819 H        1 UNL1     0.0524
     123 H         -3.270189   4.306264   2.215315 H        1 UNL1     0.0524
@<TRIPOS>BOND
     1     1     2    1
     2     1    42    1
     3     2     3    2
     4     3     4    1
     5     4     5    2
     6     5     7    1
     7     6    75    1
     8     6    76    1
     9     6    77    1
    10     7     9   am
    11     9    10    1
    12    10    11    2
    13    10    43    1
    14    11    14    1
    15    11    15    1
    16    12    13   ar
    17    12    27   ar
    18    12    43    1
    19    13    14    1
    20    13    30   ar
    21    14    17    2
    22    15    16    1
    23    16    17    1
    24    16    18    1
    25    16    22    1
    26    18    19    1
    27    19    20    1
    28    20    21    1
    29    21    22    1
    30    23    24    1
    31    23    88    1
    32    23    89    1
    33    24    25    1
    34    24    26    1
    35    24    90    1
    36    25    91    1
    37    25    92    1
    38    25    93    1
    39    26    94    1
    40    26    95    1
    41    26    96    1
    42    27    28   ar
    43    28    29   ar
    44    29    30   ar
    45    29    31    1
    46    30    33    1
    47    31    32    1
    48    32    33    1
    49    32    35    1
    50    34    97    1
    51    34    98    1
    52    34    99    1
    53    35    61    1
    54    36    37    1
    55    36    60    1
    56    37    38    1
    57    38    39    1
    58    39    40    1
    59    40    41    1
    60    41    42    1
    61    45   100    1
    62    47   101    1
    63    47   102    1
    64    47   103    1
    65    48   104    1
    66    49   105    1
    67    49   106    1
    68    49   107    1
    69    50   108    1
    70    51    59    1
    71    52   109    1
    72    52   110    1
    73    52   111    1
    74    53    54    1
    75    54    55    2
    76    54    56    1
    77    56   112    1
    78    56   113    1
    79    56   114    1
    80    57   115    1
    81    57   116    1
    82    57   117    1
    83    58   118    1
    84    58   119    1
    85    58   120    1
    86    59   121    1
    87    59   122    1
    88    59   123    1
    89    60    61    2
    90     1    47    1
    91     1    62    1
    92     2    63    1
    93     3    64    1
    94     4    65    1
    95     5     6    1
    96     7     8    2
    97     9    78    1
    98    15    79    1
    99    18    80    1
   100    18    81    1
   101    19    82    1
   102    19    83    1
   103    20    23    1
   104    21    84    1
   105    21    85    1
   106    22    86    1
   107    22    87    1
   108    27    45    1
   109    28    34    1
   110    32    58    1
   111    33    46    2
   112    36    51    1
   113    36    66    1
   114    37    52    1
   115    37    67    1
   116    38    53    1
   117    38    68    1
   118    42    48    1
   119    42    72    1
   120    43    44    2
   121    60    73    1
   122    61    74    1
   123    39    69    1
   124    39    57    1
   125    40    70    1
   126    40    50    1
   127    41    71    1
   128    41    49    1
