@<TRIPOS>MOLECULE
*****
 123 128 0 0 0
SMALL
GASTEIGER

@<TRIPOS>ATOM
     1 C         -1.375927   2.703477   -2.961257 C.3        1 UNL1     0.0009
     2 C         -3.131116   3.149216   -3.358328 C.2        1 UNL1     -0.0787
     3 C         -4.287608   3.048811   -4.223482 C.2        1 UNL1     -0.0649
     4 C         -5.839312   3.673941   -3.963131 C.2        1 UNL1     -0.0542
     5 C         -7.205345   3.578891   -4.326445 C.2        1 UNL1     0.0115
     6 C         -8.194953   2.937812   -5.337889 C.3        1 UNL1     -0.0348
     7 C         -8.31287   4.225019   -3.360579 C.2        1 UNL1     0.2441
     8 O         -8.856859   5.295478   -3.594499 O.2        1 UNL1     -0.2702
     9 N         -8.805269   3.360164   -2.367745 N.am        1 UNL1     -0.2772
     10 C         -8.019153   3.426266   -1.24037 C.2        1 UNL1     0.1049
     11 C         -6.924996   2.6867   -1.249575 C.2        1 UNL1     0.0801
     12 C         -6.959108   5.043385   0.346628 C.ar        1 UNL1     0.0753
     13 C         -5.737961   4.326388   0.138485 C.ar        1 UNL1     0.0305
     14 C         -5.712951   3.045594   -0.56436 C.2        1 UNL1     0.0924
     15 N         -6.548591   1.711519   -2.094483 N.pl3        1 UNL1     -0.3170
     16 C         -5.355055   1.107447   -1.564555 C.3        1 UNL1     0.1275
     17 N         -4.701449   2.204499   -0.760193 N.2        1 UNL1     -0.2557
     18 C         -5.793129   0.047875   -0.558026 C.3        1 UNL1     0.0016
     19 C         -6.733219   -0.924043   -1.253149 C.3        1 UNL1     0.0026
     20 N         -6.033262   -1.527975   -2.378473 N.3        1 UNL1     -0.3018
     21 C         -5.519197   -0.581973   -3.371038 C.3        1 UNL1     0.0026
     22 C         -4.573698   0.381806   -2.651971 C.3        1 UNL1     0.0016
     23 C         -6.727292   -2.678061   -2.922777 C.3        1 UNL1     0.0012
     24 C         -7.75478   -2.237693   -3.977339 C.3        1 UNL1     -0.0339
     25 C         -8.996813   -3.143927   -3.965146 C.3        1 UNL1     -0.0615
     26 C         -8.124552   -0.779659   -3.767133 C.3        1 UNL1     -0.0615
     27 C         -6.993479   6.200947   1.120571 C.ar        1 UNL1     0.1347
     28 C         -5.883109   6.713951   1.767065 C.ar        1 UNL1     0.0342
     29 C         -4.682585   6.019138   1.507945 C.ar        1 UNL1     0.1435
     30 C         -4.626324   4.878904   0.705499 C.ar        1 UNL1     0.0774
     31 O         -3.535789   6.329537   2.150999 O.3        1 UNL1     -0.4436
     32 C         -2.70982   5.164866   2.002049 C.3        1 UNL1     0.3143
     33 C         -3.243364   4.455243   0.77405 C.2        1 UNL1     0.2504
     34 C         -5.891904   7.797371   2.809285 C.3        1 UNL1     -0.0327
     35 O         -1.388756   5.617729   1.681178 O.2        1 UNL1     -0.4528
     36 C         0.978096   3.011578   3.10036 C.3        1 UNL1     0.0854
     37 C         1.044525   1.462748   2.810125 C.3        1 UNL1     0.0236
     38 C         2.473314   0.928542   2.31522 C.3        1 UNL1     0.1131
     39 C         3.20843   1.649986   1.11464 C.3        1 UNL1     0.0200
     40 C         2.358354   2.101651   -0.24764 C.3        1 UNL1     0.0661
     41 C         1.30962   1.109839   -1.13875 C.3        1 UNL1     0.0091
     42 C         -0.209423   1.525867   -2.079405 C.3        1 UNL1     0.0661
     43 C         -8.204498   4.46401   -0.215144 C.2        1 UNL1     0.2131
     44 O         -9.317893   4.732192   0.19858 O.2        1 UNL1     -0.2851
     45 O         -8.213547   6.863987   1.235687 O.3        1 UNL1     -0.5056
     46 O         -2.653772   3.722841   0.011278 O.2        1 UNL1     -0.2836
     47 C         -0.399981   3.480351   -3.885366 C.3        1 UNL1     -0.0566
     48 O         0.187791   0.755731   -3.282829 O.3        1 UNL1     -0.3909
     49 C         1.000407   -0.127819   -0.326294 C.3        1 UNL1     -0.0577
     50 O         1.785159   3.382552   -0.078929 O.3        1 UNL1     -0.3910
     51 O         2.114709   3.75754   2.727426 O.3        1 UNL1     -0.3753
     52 C         -0.29655   0.924715   2.212642 C.3        1 UNL1     -0.0564
     53 O         2.613152   -0.564116   2.384088 O.3        1 UNL1     -0.4608
     54 C         3.277168   -1.343378   1.473175 C.2        1 UNL1     0.3042
     55 O         3.233504   -1.259962   0.246401 O.2        1 UNL1     -0.2512
     56 C         4.187559   -2.35976   2.101561 C.3        1 UNL1     0.0332
     57 C         4.229733   2.709483   1.741203 C.3        1 UNL1     -0.0567
     58 C         -2.972905   4.280423   3.243047 C.3        1 UNL1     0.0210
     59 C         2.913249   4.218056   3.816519 C.3        1 UNL1     0.0372
     60 C         -0.202257   3.709695   2.521948 C.2        1 UNL1     -0.0208
     61 C         -0.285575   4.867191   1.864676 C.2        1 UNL1     0.0882
     62 H         -1.458322   3.284036   -2.034503 H        1 UNL1     0.0365
     63 H         -3.348692   3.855432   -2.554344 H        1 UNL1     0.0576
     64 H         -4.297014   2.386376   -5.091928 H        1 UNL1     0.0615
     65 H         -5.702436   4.374584   -3.134972 H        1 UNL1     0.0622
     66 H         0.865882   3.083392   4.191368 H        1 UNL1     0.0645
     67 H         0.971041   0.999357   3.809339 H        1 UNL1     0.0362
     68 H         3.075244   1.159886   3.207231 H        1 UNL1     0.0741
     69 H         3.959698   0.982092   0.714739 H        1 UNL1     0.0359
     70 H         3.197497   2.264556   -0.950748 H        1 UNL1     0.0600
     71 H         2.016941   0.70566   -1.889279 H        1 UNL1     0.0348
     72 H         0.339959   2.470638   -1.957329 H        1 UNL1     0.0602
     73 H         -1.086911   3.200286   2.813729 H        1 UNL1     0.0628
     74 H         0.571508   5.420971   1.480002 H        1 UNL1     0.1022
     75 H         -7.638652   2.41929   -6.155629 H        1 UNL1     0.0279
     76 H         -8.837165   2.148239   -4.954214 H        1 UNL1     0.0279
     77 H         -8.767103   3.68618   -5.905595 H        1 UNL1     0.0279
     78 H         -8.776599   2.400328   -2.705339 H        1 UNL1     0.1553
     79 H         -7.183087   1.22266   -2.698937 H        1 UNL1     0.1484
     80 H         -4.904887   -0.463674   -0.168013 H        1 UNL1     0.0317
     81 H         -6.292814   0.507501   0.301456 H        1 UNL1     0.0317
     82 H         -7.65928   -0.429944   -1.582071 H        1 UNL1     0.0428
     83 H         -7.034785   -1.669914   -0.517089 H        1 UNL1     0.0428
     84 H         -4.929669   -1.054281   -4.162994 H        1 UNL1     0.0428
     85 H         -6.330691   -0.073411   -3.909704 H        1 UNL1     0.0428
     86 H         -4.116922   0.970553   -3.425742 H        1 UNL1     0.0317
     87 H         -3.729721   -0.171776   -2.222616 H        1 UNL1     0.0317
     88 H         -5.9857   -3.326844   -3.406944 H        1 UNL1     0.0429
     89 H         -7.202623   -3.269207   -2.129442 H        1 UNL1     0.0429
     90 H         -7.294355   -2.289662   -4.971081 H        1 UNL1     0.0308
     91 H         -9.352121   -3.318036   -2.945075 H        1 UNL1     0.0233
     92 H         -9.803153   -2.702142   -4.555274 H        1 UNL1     0.0233
     93 H         -8.79959   -4.128714   -4.405751 H        1 UNL1     0.0233
     94 H         -9.095669   -0.566242   -4.226721 H        1 UNL1     0.0233
     95 H         -8.203107   -0.564541   -2.69778 H        1 UNL1     0.0233
     96 H         -7.379373   -0.111464   -4.207805 H        1 UNL1     0.0233
     97 H         -5.461591   7.462765   3.748487 H        1 UNL1     0.0280
     98 H         -5.302094   8.671152   2.502875 H        1 UNL1     0.0280
     99 H         -6.929223   8.11823   2.999321 H        1 UNL1     0.0280
     100 H         -8.649863   7.025898   0.417741 H        1 UNL1     0.2922
     101 H         -0.417265   3.047328   -4.88529 H        1 UNL1     0.0236
     102 H         0.611097   3.543596   -3.484487 H        1 UNL1     0.0236
     103 H         -0.711452   4.528485   -4.028871 H        1 UNL1     0.0236
     104 H         1.005344   0.267245   -3.063833 H        1 UNL1     0.2098
     105 H         1.051164   -1.057599   -0.887315 H        1 UNL1     0.0234
     106 H         1.564316   -0.215626   0.602266 H        1 UNL1     0.0234
     107 H         0.0   0.0   0.0 H        1 UNL1     0.0234
     108 H         1.33179   3.609714   -0.913568 H        1 UNL1     0.2098
     109 H         -1.144919   1.072141   2.895465 H        1 UNL1     0.0234
     110 H         -0.534899   1.354865   1.233916 H        1 UNL1     0.0234
     111 H         -0.250894   -0.156217   2.024368 H        1 UNL1     0.0234
     112 H         5.15822   -1.904747   2.320938 H        1 UNL1     0.0342
     113 H         3.752107   -2.801857   2.996422 H        1 UNL1     0.0342
     114 H         4.351052   -3.168782   1.37636 H        1 UNL1     0.0342
     115 H         5.140537   2.806859   1.134455 H        1 UNL1     0.0234
     116 H         3.810342   3.70968   1.866768 H        1 UNL1     0.0234
     117 H         4.652171   2.393181   2.710451 H        1 UNL1     0.0234
     118 H         -2.101459   4.246301   3.920117 H        1 UNL1     0.0309
     119 H         -3.856058   4.589225   3.811277 H        1 UNL1     0.0309
     120 H         -3.132189   3.228185   2.983182 H        1 UNL1     0.0309
     121 H         3.44293   5.109976   3.482941 H        1 UNL1     0.0524
     122 H         2.304443   4.501203   4.691288 H        1 UNL1     0.0524
     123 H         3.622044   3.450389   4.113827 H        1 UNL1     0.0524
@<TRIPOS>BOND
     1     1     2    1
     2     1    42    1
     3     2     3    2
     4     3     4    1
     5     4     5    2
     6     5     7    1
     7     6    75    1
     8     6    76    1
     9     6    77    1
    10     7     9   am
    11     9    10    1
    12    10    11    2
    13    10    43    1
    14    11    14    1
    15    11    15    1
    16    12    13   ar
    17    12    27   ar
    18    12    43    1
    19    13    14    1
    20    13    30   ar
    21    14    17    2
    22    15    16    1
    23    16    17    1
    24    16    18    1
    25    16    22    1
    26    18    19    1
    27    19    20    1
    28    20    21    1
    29    21    22    1
    30    23    24    1
    31    23    88    1
    32    23    89    1
    33    24    25    1
    34    24    26    1
    35    24    90    1
    36    25    91    1
    37    25    92    1
    38    25    93    1
    39    26    94    1
    40    26    95    1
    41    26    96    1
    42    27    28   ar
    43    28    29   ar
    44    29    30   ar
    45    29    31    1
    46    30    33    1
    47    31    32    1
    48    32    33    1
    49    32    35    1
    50    34    97    1
    51    34    98    1
    52    34    99    1
    53    35    61    1
    54    36    37    1
    55    36    60    1
    56    37    38    1
    57    38    39    1
    58    39    40    1
    59    40    41    1
    60    41    42    1
    61    45   100    1
    62    47   101    1
    63    47   102    1
    64    47   103    1
    65    48   104    1
    66    49   105    1
    67    49   106    1
    68    49   107    1
    69    50   108    1
    70    51    59    1
    71    52   109    1
    72    52   110    1
    73    52   111    1
    74    53    54    1
    75    54    55    2
    76    54    56    1
    77    56   112    1
    78    56   113    1
    79    56   114    1
    80    57   115    1
    81    57   116    1
    82    57   117    1
    83    58   118    1
    84    58   119    1
    85    58   120    1
    86    59   121    1
    87    59   122    1
    88    59   123    1
    89    60    61    2
    90     1    47    1
    91     1    62    1
    92     2    63    1
    93     3    64    1
    94     4    65    1
    95     5     6    1
    96     7     8    2
    97     9    78    1
    98    15    79    1
    99    18    80    1
   100    18    81    1
   101    19    82    1
   102    19    83    1
   103    20    23    1
   104    21    84    1
   105    21    85    1
   106    22    86    1
   107    22    87    1
   108    27    45    1
   109    28    34    1
   110    32    58    1
   111    33    46    2
   112    36    51    1
   113    36    66    1
   114    37    52    1
   115    37    67    1
   116    38    53    1
   117    38    68    1
   118    42    48    1
   119    42    72    1
   120    43    44    2
   121    60    73    1
   122    61    74    1
   123    39    69    1
   124    39    57    1
   125    40    70    1
   126    40    50    1
   127    41    71    1
   128    41    49    1
