@<TRIPOS>MOLECULE
*****
 123 128 0 0 0
SMALL
GASTEIGER

@<TRIPOS>ATOM
     1 C         -2.76001   2.035658   2.417464 C.3        1 UNL1     0.0009
     2 C         -4.212417   3.045434   1.862576 C.2        1 UNL1     -0.0787
     3 C         -4.829271   4.333377   1.624371 C.2        1 UNL1     -0.0649
     4 C         -6.330846   4.651807   0.910067 C.2        1 UNL1     -0.0542
     5 C         -7.123602   5.630113   0.26081 C.2        1 UNL1     0.0115
     6 C         -7.213055   7.138792   -0.098645 C.3        1 UNL1     -0.0348
     7 C         -8.40126   5.156529   -0.587893 C.2        1 UNL1     0.2441
     8 O         -9.547766   5.246696   -0.170857 O.2        1 UNL1     -0.2702
     9 N         -8.138773   4.87484   -1.939893 N.am        1 UNL1     -0.2772
     10 C         -7.755804   3.561929   -2.091289 C.2        1 UNL1     0.1049
     11 C         -6.483613   3.295975   -1.856723 C.2        1 UNL1     0.0801
     12 C         -8.39815   1.224508   -1.473884 C.ar        1 UNL1     0.0753
     13 C         -7.046256   1.052074   -1.036552 C.ar        1 UNL1     0.0305
     14 C         -6.013129   2.041003   -1.336083 C.2        1 UNL1     0.0924
     15 N         -5.442342   4.13025   -1.694652 N.pl3        1 UNL1     -0.3170
     16 C         -4.245676   3.333419   -1.637182 C.3        1 UNL1     0.1275
     17 N         -4.704979   2.000155   -1.099436 N.2        1 UNL1     -0.2557
     18 C         -3.801686   3.080047   -3.074672 C.3        1 UNL1     0.0016
     19 C         -3.631258   4.419139   -3.774227 C.3        1 UNL1     0.0026
     20 N         -2.63982   5.202416   -3.049964 N.3        1 UNL1     -0.3018
     21 C         -2.949498   5.446327   -1.639654 C.3        1 UNL1     0.0026
     22 C         -3.111941   4.087935   -0.955347 C.3        1 UNL1     0.0016
     23 C         -2.185104   6.361457   -3.791922 C.3        1 UNL1     0.0012
     24 C         -3.143602   7.544491   -3.583431 C.3        1 UNL1     -0.0339
     25 C         -3.247878   8.413336   -4.847667 C.3        1 UNL1     -0.0615
     26 C         -4.505091   7.03948   -3.138355 C.3        1 UNL1     -0.0615
     27 C         -9.349306   0.223631   -1.290398 C.ar        1 UNL1     0.1347
     28 C         -9.058745   -1.003127   -0.720583 C.ar        1 UNL1     0.0342
     29 C         -7.733458   -1.131756   -0.253429 C.ar        1 UNL1     0.1435
     30 C         -6.77912   -0.123971   -0.397747 C.ar        1 UNL1     0.0774
     31 O         -7.265896   -2.305094   0.225811 O.3        1 UNL1     -0.4436
     32 C         -5.837546   -2.186999   0.143692 C.3        1 UNL1     0.3143
     33 C         -5.562814   -0.696791   0.140067 C.2        1 UNL1     0.2504
     34 C         -9.956118   -2.209285   -0.719006 C.3        1 UNL1     -0.0327
     35 O         -5.296191   -2.708057   1.363809 O.2        1 UNL1     -0.4528
     36 C         -1.885429   -4.114886   0.471834 C.3        1 UNL1     0.0854
     37 C         -0.651908   -3.390992   -0.192942 C.3        1 UNL1     0.0236
     38 C         0.717409   -3.490768   0.635768 C.3        1 UNL1     0.1131
     39 C         0.736014   -3.107874   2.170472 C.3        1 UNL1     0.0200
     40 C         -0.06316   -1.747367   2.711562 C.3        1 UNL1     0.0661
     41 C         0.065295   -0.190571   2.050126 C.3        1 UNL1     0.0091
     42 C         -1.17254   1.158249   1.932433 C.3        1 UNL1     0.0661
     43 C         -8.732523   2.469071   -2.209762 C.2        1 UNL1     0.2131
     44 O         -9.68969   2.57372   -2.95516 O.2        1 UNL1     -0.2851
     45 O         -10.653195   0.48924   -1.703632 O.3        1 UNL1     -0.5056
     46 O         -4.571777   -0.112352   0.517067 O.2        1 UNL1     -0.2836
     47 C         -2.645801   2.060514   3.96547 C.3        1 UNL1     -0.0566
     48 O         -0.247345   2.205081   2.429699 O.3        1 UNL1     -0.3909
     49 C         0.741415   -0.287932   0.700728 C.3        1 UNL1     -0.0577
     50 O         -1.415977   -2.041025   2.996823 O.3        1 UNL1     -0.3910
     51 O         -1.681972   -4.604067   1.778256 O.3        1 UNL1     -0.3753
     52 C         -1.077342   -2.085672   -0.941337 C.3        1 UNL1     -0.0564
     53 O         1.931064   -3.112483   -0.161896 O.3        1 UNL1     -0.4608
     54 C         3.019384   -2.43337   0.320073 C.2        1 UNL1     0.3042
     55 O         3.291719   -1.245021   0.154245 O.2        1 UNL1     -0.2512
     56 C         3.915914   -3.271432   1.186444 C.3        1 UNL1     0.0332
     57 C         0.557183   -4.459368   3.006927 C.3        1 UNL1     -0.0567
     58 C         -5.428309   -2.773063   -1.227652 C.3        1 UNL1     0.0210
     59 C         -2.828621   -5.204344   2.378864 C.3        1 UNL1     0.0372
     60 C         -3.141123   -3.316505   0.503147 C.2        1 UNL1     -0.0208
     61 C         -4.023396   -3.131197   1.486 C.2        1 UNL1     0.0882
     62 H         -3.317411   1.127148   2.159345 H        1 UNL1     0.0365
     63 H         -4.944169   2.25895   1.666485 H        1 UNL1     0.0576
     64 H         -4.273952   5.265752   1.748488 H        1 UNL1     0.0615
     65 H         -6.829127   3.678574   0.905988 H        1 UNL1     0.0622
     66 H         -2.089572   -4.971908   -0.185345 H        1 UNL1     0.0645
     67 H         -0.420122   -4.012295   -1.075449 H        1 UNL1     0.0362
     68 H         0.872121   -4.580096   0.604933 H        1 UNL1     0.0741
     69 H         1.758141   -2.916982   2.469178 H        1 UNL1     0.0359
     70 H         0.410075   -1.630817   3.705304 H        1 UNL1     0.0600
     71 H         0.884282   0.217651   2.674283 H        1 UNL1     0.0348
     72 H         -1.536723   0.480115   2.717813 H        1 UNL1     0.0602
     73 H         -3.353356   -2.960887   -0.474473 H        1 UNL1     0.0628
     74 H         -3.856104   -3.413089   2.526091 H        1 UNL1     0.1022
     75 H         -8.103746   7.605385   0.387148 H        1 UNL1     0.0279
     76 H         -6.3986   7.769727   0.250143 H        1 UNL1     0.0279
     77 H         -7.431879   7.310167   -1.162811 H        1 UNL1     0.0279
     78 H         -7.371382   5.45756   -2.267957 H        1 UNL1     0.1553
     79 H         -5.444014   5.087887   -1.994423 H        1 UNL1     0.1484
     80 H         -2.863985   2.511386   -3.064277 H        1 UNL1     0.0317
     81 H         -4.534923   2.465711   -3.608158 H        1 UNL1     0.0317
     82 H         -4.584721   4.96205   -3.852118 H        1 UNL1     0.0428
     83 H         -3.316218   4.215169   -4.798042 H        1 UNL1     0.0428
     84 H         -2.152894   5.967225   -1.099378 H        1 UNL1     0.0428
     85 H         -3.824471   6.10018   -1.520419 H        1 UNL1     0.0428
     86 H         -3.204518   4.301277   0.093415 H        1 UNL1     0.0317
     87 H         -2.174105   3.522516   -1.0175 H        1 UNL1     0.0317
     88 H         -1.194397   6.643153   -3.411866 H        1 UNL1     0.0429
     89 H         -2.066777   6.130901   -4.858513 H        1 UNL1     0.0429
     90 H         -2.771785   8.167446   -2.761304 H        1 UNL1     0.0308
     91 H         -2.380663   8.272447   -5.499734 H        1 UNL1     0.0233
     92 H         -4.157569   8.177201   -5.404722 H        1 UNL1     0.0233
     93 H         -3.300716   9.483909   -4.615469 H        1 UNL1     0.0233
     94 H         -5.243988   7.846152   -3.194454 H        1 UNL1     0.0233
     95 H         -4.837341   6.231622   -3.796334 H        1 UNL1     0.0233
     96 H         -4.476356   6.668064   -2.110156 H        1 UNL1     0.0233
     97 H         -9.4891   -3.06522   -1.197022 H        1 UNL1     0.0280
     98 H         -10.210183   -2.534734   0.29824 H        1 UNL1     0.0280
     99 H         -10.887756   -1.97684   -1.260406 H        1 UNL1     0.0280
     100 H         -10.948259   1.365712   -1.5294 H        1 UNL1     0.2922
     101 H         -2.699595   3.089061   4.321634 H        1 UNL1     0.0236
     102 H         -1.76184   1.544264   4.338408 H        1 UNL1     0.0236
     103 H         -3.494652   1.551262   4.451584 H        1 UNL1     0.0236
     104 H         -0.325579   2.229489   3.403483 H        1 UNL1     0.2098
     105 H         1.592894   0.376337   0.576063 H        1 UNL1     0.0234
     106 H         1.004347   -1.300558   0.395143 H        1 UNL1     0.0234
     107 H         0.0   0.0   -0.0 H        1 UNL1     0.0234
     108 H         -1.468384   -2.993778   3.204868 H        1 UNL1     0.2098
     109 H         -1.863493   -2.27088   -1.686574 H        1 UNL1     0.0234
     110 H         -1.395453   -1.285593   -0.264269 H        1 UNL1     0.0234
     111 H         -0.238437   -1.646146   -1.497216 H        1 UNL1     0.0234
     112 H         4.962656   -3.089427   0.92462 H        1 UNL1     0.0342
     113 H         3.742094   -3.095206   2.246903 H        1 UNL1     0.0342
     114 H         3.697256   -4.329067   0.984546 H        1 UNL1     0.0342
     115 H         1.088453   -4.418303   3.967788 H        1 UNL1     0.0234
     116 H         -0.482736   -4.716857   3.217443 H        1 UNL1     0.0234
     117 H         1.036166   -5.334924   2.535843 H        1 UNL1     0.0234
     118 H         -4.43342   -2.418812   -1.54969 H        1 UNL1     0.0309
     119 H         -5.442969   -3.867384   -1.248841 H        1 UNL1     0.0309
     120 H         -6.08783   -2.445211   -2.038609 H        1 UNL1     0.0309
     121 H         -2.718221   -5.117714   3.459448 H        1 UNL1     0.0524
     122 H         -3.764131   -4.692168   2.098626 H        1 UNL1     0.0524
     123 H         -2.899365   -6.249691   2.091917 H        1 UNL1     0.0524
@<TRIPOS>BOND
     1     1     2    1
     2     1    42    1
     3     2     3    2
     4     3     4    1
     5     4     5    2
     6     5     7    1
     7     6    75    1
     8     6    76    1
     9     6    77    1
    10     7     9   am
    11     9    10    1
    12    10    11    2
    13    10    43    1
    14    11    14    1
    15    11    15    1
    16    12    13   ar
    17    12    27   ar
    18    12    43    1
    19    13    14    1
    20    13    30   ar
    21    14    17    2
    22    15    16    1
    23    16    17    1
    24    16    18    1
    25    16    22    1
    26    18    19    1
    27    19    20    1
    28    20    21    1
    29    21    22    1
    30    23    24    1
    31    23    88    1
    32    23    89    1
    33    24    25    1
    34    24    26    1
    35    24    90    1
    36    25    91    1
    37    25    92    1
    38    25    93    1
    39    26    94    1
    40    26    95    1
    41    26    96    1
    42    27    28   ar
    43    28    29   ar
    44    29    30   ar
    45    29    31    1
    46    30    33    1
    47    31    32    1
    48    32    33    1
    49    32    35    1
    50    34    97    1
    51    34    98    1
    52    34    99    1
    53    35    61    1
    54    36    37    1
    55    36    60    1
    56    37    38    1
    57    38    39    1
    58    39    40    1
    59    40    41    1
    60    41    42    1
    61    45   100    1
    62    47   101    1
    63    47   102    1
    64    47   103    1
    65    48   104    1
    66    49   105    1
    67    49   106    1
    68    49   107    1
    69    50   108    1
    70    51    59    1
    71    52   109    1
    72    52   110    1
    73    52   111    1
    74    53    54    1
    75    54    55    2
    76    54    56    1
    77    56   112    1
    78    56   113    1
    79    56   114    1
    80    57   115    1
    81    57   116    1
    82    57   117    1
    83    58   118    1
    84    58   119    1
    85    58   120    1
    86    59   121    1
    87    59   122    1
    88    59   123    1
    89    60    61    2
    90     1    47    1
    91     1    62    1
    92     2    63    1
    93     3    64    1
    94     4    65    1
    95     5     6    1
    96     7     8    2
    97     9    78    1
    98    15    79    1
    99    18    80    1
   100    18    81    1
   101    19    82    1
   102    19    83    1
   103    20    23    1
   104    21    84    1
   105    21    85    1
   106    22    86    1
   107    22    87    1
   108    27    45    1
   109    28    34    1
   110    32    58    1
   111    33    46    2
   112    36    51    1
   113    36    66    1
   114    37    52    1
   115    37    67    1
   116    38    53    1
   117    38    68    1
   118    42    48    1
   119    42    72    1
   120    43    44    2
   121    60    73    1
   122    61    74    1
   123    39    69    1
   124    39    57    1
   125    40    70    1
   126    40    50    1
   127    41    71    1
   128    41    49    1
