@<TRIPOS>MOLECULE
*****
 123 128 0 0 0
SMALL
GASTEIGER

@<TRIPOS>ATOM
     1 C         5.313287   1.139631   0.515314 C.3        1 UNL1     0.0009
     2 C         6.880842   1.608841   -0.356266 C.2        1 UNL1     -0.0787
     3 C         8.144585   1.235653   -0.956039 C.2        1 UNL1     -0.0649
     4 C         9.228   2.225128   -1.800734 C.2        1 UNL1     -0.0542
     5 C         10.303143   2.247134   -2.723047 C.2        1 UNL1     0.0115
     6 C         11.3342   1.35914   -3.472521 C.3        1 UNL1     -0.0348
     7 C         10.651948   3.620792   -3.47696 C.2        1 UNL1     0.2441
     8 O         11.589527   4.337354   -3.154453 O.2        1 UNL1     -0.2702
     9 N         9.972192   3.814809   -4.692049 N.am        1 UNL1     -0.2772
     10 C         8.762508   4.432599   -4.472226 C.2        1 UNL1     0.1049
     11 C         7.763732   3.645995   -4.114562 C.2        1 UNL1     0.0801
     12 C         7.710518   6.370156   -3.29048 C.ar        1 UNL1     0.0753
     13 C         6.768328   5.433261   -2.758394 C.ar        1 UNL1     0.0305
     14 C         6.686297   4.062792   -3.25853 C.2        1 UNL1     0.0924
     15 N         7.672446   2.305103   -4.128797 N.pl3        1 UNL1     -0.3170
     16 C         6.315298   1.953612   -3.804981 C.3        1 UNL1     0.1275
     17 N         5.820343   3.099507   -2.95665 N.2        1 UNL1     -0.2557
     18 C         5.512402   2.008641   -5.101142 C.3        1 UNL1     0.0016
     19 C         6.171666   1.093636   -6.120812 C.3        1 UNL1     0.0026
     20 N         6.205502   -0.259164   -5.582465 N.3        1 UNL1     -0.3018
     21 C         6.904216   -0.402045   -4.303499 C.3        1 UNL1     0.0026
     22 C         6.222628   0.522227   -3.293027 C.3        1 UNL1     0.0016
     23 C         6.536163   -1.25563   -6.581645 C.3        1 UNL1     0.0012
     24 C         5.376492   -1.427485   -7.575318 C.3        1 UNL1     -0.0339
     25 C         5.586742   -0.575429   -8.837796 C.3        1 UNL1     -0.0615
     26 C         5.196019   -2.896536   -7.916054 C.3        1 UNL1     -0.0615
     27 C         7.702247   7.705689   -2.895003 C.ar        1 UNL1     0.1347
     28 C         6.778079   8.227941   -2.00775 C.ar        1 UNL1     0.0342
     29 C         5.89125   7.276912   -1.459807 C.ar        1 UNL1     0.1435
     30 C         5.910996   5.928711   -1.819232 C.ar        1 UNL1     0.0774
     31 O         4.863351   7.647472   -0.665379 O.3        1 UNL1     -0.4436
     32 C         3.954435   6.537052   -0.70676 C.3        1 UNL1     0.3143
     33 C         4.804822   5.343156   -1.091035 C.2        1 UNL1     0.2504
     34 C         6.549151   9.687696   -1.73061 C.3        1 UNL1     -0.0327
     35 O         3.49775   6.310255   0.632364 O.2        1 UNL1     -0.4528
     36 C         -0.006186   4.886702   0.309843 C.3        1 UNL1     0.0854
     37 C         -0.49167   3.600017   -0.462343 C.3        1 UNL1     0.0236
     38 C         -1.306885   2.54463   0.428346 C.3        1 UNL1     0.1131
     39 C         -0.706854   2.05098   1.806223 C.3        1 UNL1     0.0200
     40 C         0.907259   1.648509   1.929076 C.3        1 UNL1     0.0661
     41 C         1.755383   0.613426   0.886531 C.3        1 UNL1     0.0091
     42 C         3.511586   0.63575   0.356764 C.3        1 UNL1     0.0661
     43 C         8.639497   5.892362   -4.344506 C.2        1 UNL1     0.2131
     44 O         9.196216   6.631141   -5.136344 O.2        1 UNL1     -0.2851
     45 O         8.682097   8.541848   -3.426197 O.3        1 UNL1     -0.5056
     46 O         4.622118   4.174088   -0.834613 O.2        1 UNL1     -0.2836
     47 C         5.60175   0.812917   2.00529 C.3        1 UNL1     -0.0566
     48 O         3.722997   -0.811144   0.603581 O.3        1 UNL1     -0.3909
     49 C         0.922964   0.381908   -0.354828 C.3        1 UNL1     -0.0577
     50 O         1.688204   2.791056   2.216192 O.3        1 UNL1     -0.3910
     51 O         -0.191105   4.872914   1.707357 O.3        1 UNL1     -0.3753
     52 C         0.53883   3.150083   -1.548886 C.3        1 UNL1     -0.0564
     53 O         -2.049594   1.522375   -0.381409 O.3        1 UNL1     -0.4608
     54 C         -2.48932   0.309183   0.079825 C.2        1 UNL1     0.3042
     55 O         -2.076061   -0.805193   -0.238329 O.2        1 UNL1     -0.2512
     56 C         -3.558187   0.416516   1.129928 C.3        1 UNL1     0.0332
     57 C         -1.338181   2.960347   2.960628 C.3        1 UNL1     -0.0567
     58 C         2.958313   6.829629   -1.852914 C.3        1 UNL1     0.0210
     59 C         -0.35686   6.158951   2.302756 C.3        1 UNL1     0.0372
     60 C         1.412251   5.267292   0.068284 C.2        1 UNL1     -0.0208
     61 C         2.363714   5.644478   0.923382 C.2        1 UNL1     0.0882
     62 H         5.001692   2.190523   0.48002 H        1 UNL1     0.0365
     63 H         6.786979   2.696681   -0.372496 H        1 UNL1     0.0576
     64 H         8.444023   0.189992   -1.056227 H        1 UNL1     0.0615
     65 H         8.88831   3.238778   -1.571369 H        1 UNL1     0.0622
     66 H         -0.612419   5.703573   -0.106388 H        1 UNL1     0.0645
     67 H         -1.281318   3.974172   -1.136897 H        1 UNL1     0.0362
     68 H         -2.178174   3.162467   0.694157 H        1 UNL1     0.0741
     69 H         -1.202579   1.13308   2.092796 H        1 UNL1     0.0359
     70 H         0.890186   1.079477   2.878271 H        1 UNL1     0.0600
     71 H         1.622774   -0.348615   1.419306 H        1 UNL1     0.0348
     72 H         3.464129   1.239033   1.274976 H        1 UNL1     0.0602
     73 H         1.584199   5.328403   -0.977635 H        1 UNL1     0.0628
     74 H         2.28782   5.557896   2.007809 H        1 UNL1     0.1022
     75 H         11.195053   0.284387   -3.203115 H        1 UNL1     0.0279
     76 H         11.260119   1.34016   -4.557519 H        1 UNL1     0.0279
     77 H         12.367719   1.53408   -3.139452 H        1 UNL1     0.0279
     78 H         9.781669   2.913554   -5.125084 H        1 UNL1     0.1553
     79 H         8.273244   1.711666   -4.670837 H        1 UNL1     0.1484
     80 H         4.479972   1.701123   -4.895501 H        1 UNL1     0.0317
     81 H         5.463445   3.032183   -5.487942 H        1 UNL1     0.0317
     82 H         7.181676   1.439724   -6.385415 H        1 UNL1     0.0428
     83 H         5.584247   1.149369   -7.037808 H        1 UNL1     0.0428
     84 H         6.846448   -1.410581   -3.882393 H        1 UNL1     0.0428
     85 H         7.982504   -0.216153   -4.403778 H        1 UNL1     0.0428
     86 H         6.670708   0.294036   -2.343742 H        1 UNL1     0.0317
     87 H         5.176013   0.223073   -3.158116 H        1 UNL1     0.0317
     88 H         7.419566   -0.906984   -7.132407 H        1 UNL1     0.0429
     89 H         6.804283   -2.213011   -6.116556 H        1 UNL1     0.0429
     90 H         4.442107   -1.114559   -7.09447 H        1 UNL1     0.0308
     91 H         6.527362   -0.828289   -9.336191 H        1 UNL1     0.0233
     92 H         4.76068   -0.71388   -9.539267 H        1 UNL1     0.0233
     93 H         5.622839   0.498025   -8.615919 H        1 UNL1     0.0233
     94 H         4.505601   -3.006629   -8.759285 H        1 UNL1     0.0233
     95 H         6.155554   -3.333279   -8.20676 H        1 UNL1     0.0233
     96 H         4.796001   -3.457013   -7.066454 H        1 UNL1     0.0233
     97 H         5.741623   9.846162   -1.022078 H        1 UNL1     0.0280
     98 H         7.432817   10.169154   -1.29176 H        1 UNL1     0.0280
     99 H         6.292046   10.205619   -2.669092 H        1 UNL1     0.0280
     100 H         8.350634   9.316889   -3.844607 H        1 UNL1     0.2922
     101 H         4.66868   0.580063   2.517947 H        1 UNL1     0.0236
     102 H         6.16406   1.594897   2.514503 H        1 UNL1     0.0236
     103 H         6.217398   -0.095024   2.118497 H        1 UNL1     0.0236
     104 H         4.096491   -0.905676   1.501654 H        1 UNL1     0.2098
     105 H         0.712488   1.280991   -0.928553 H        1 UNL1     0.0234
     106 H         1.292382   -0.406652   -1.010291 H        1 UNL1     0.0234
     107 H         0.0   -0.0   0.0 H        1 UNL1     0.0234
     108 H         1.612788   3.393668   1.451379 H        1 UNL1     0.2098
     109 H         1.522695   2.917458   -1.118064 H        1 UNL1     0.0234
     110 H         0.190655   2.301014   -2.146883 H        1 UNL1     0.0234
     111 H         0.718001   3.941302   -2.289032 H        1 UNL1     0.0234
     112 H         -3.859743   -0.583024   1.457541 H        1 UNL1     0.0342
     113 H         -3.242111   1.02594   1.975234 H        1 UNL1     0.0342
     114 H         -4.434699   0.901828   0.67897 H        1 UNL1     0.0342
     115 H         -2.432714   2.871908   2.997553 H        1 UNL1     0.0234
     116 H         -0.956919   2.738112   3.959278 H        1 UNL1     0.0234
     117 H         -1.217729   4.042918   2.783222 H        1 UNL1     0.0234
     118 H         2.139147   7.495882   -1.530302 H        1 UNL1     0.0309
     119 H         3.437457   7.254988   -2.740435 H        1 UNL1     0.0309
     120 H         2.433297   5.930416   -2.193326 H        1 UNL1     0.0309
     121 H         0.555722   6.726193   2.121679 H        1 UNL1     0.0524
     122 H         -1.192384   6.722602   1.855281 H        1 UNL1     0.0524
     123 H         -0.530594   6.059245   3.370449 H        1 UNL1     0.0524
@<TRIPOS>BOND
     1     1     2    1
     2     1    42    1
     3     2     3    2
     4     3     4    1
     5     4     5    2
     6     5     7    1
     7     6    75    1
     8     6    76    1
     9     6    77    1
    10     7     9   am
    11     9    10    1
    12    10    11    2
    13    10    43    1
    14    11    14    1
    15    11    15    1
    16    12    13   ar
    17    12    27   ar
    18    12    43    1
    19    13    14    1
    20    13    30   ar
    21    14    17    2
    22    15    16    1
    23    16    17    1
    24    16    18    1
    25    16    22    1
    26    18    19    1
    27    19    20    1
    28    20    21    1
    29    21    22    1
    30    23    24    1
    31    23    88    1
    32    23    89    1
    33    24    25    1
    34    24    26    1
    35    24    90    1
    36    25    91    1
    37    25    92    1
    38    25    93    1
    39    26    94    1
    40    26    95    1
    41    26    96    1
    42    27    28   ar
    43    28    29   ar
    44    29    30   ar
    45    29    31    1
    46    30    33    1
    47    31    32    1
    48    32    33    1
    49    32    35    1
    50    34    97    1
    51    34    98    1
    52    34    99    1
    53    35    61    1
    54    36    37    1
    55    36    60    1
    56    37    38    1
    57    38    39    1
    58    39    40    1
    59    40    41    1
    60    41    42    1
    61    45   100    1
    62    47   101    1
    63    47   102    1
    64    47   103    1
    65    48   104    1
    66    49   105    1
    67    49   106    1
    68    49   107    1
    69    50   108    1
    70    51    59    1
    71    52   109    1
    72    52   110    1
    73    52   111    1
    74    53    54    1
    75    54    55    2
    76    54    56    1
    77    56   112    1
    78    56   113    1
    79    56   114    1
    80    57   115    1
    81    57   116    1
    82    57   117    1
    83    58   118    1
    84    58   119    1
    85    58   120    1
    86    59   121    1
    87    59   122    1
    88    59   123    1
    89    60    61    2
    90     1    47    1
    91     1    62    1
    92     2    63    1
    93     3    64    1
    94     4    65    1
    95     5     6    1
    96     7     8    2
    97     9    78    1
    98    15    79    1
    99    18    80    1
   100    18    81    1
   101    19    82    1
   102    19    83    1
   103    20    23    1
   104    21    84    1
   105    21    85    1
   106    22    86    1
   107    22    87    1
   108    27    45    1
   109    28    34    1
   110    32    58    1
   111    33    46    2
   112    36    51    1
   113    36    66    1
   114    37    52    1
   115    37    67    1
   116    38    53    1
   117    38    68    1
   118    42    48    1
   119    42    72    1
   120    43    44    2
   121    60    73    1
   122    61    74    1
   123    39    69    1
   124    39    57    1
   125    40    70    1
   126    40    50    1
   127    41    71    1
   128    41    49    1
