@<TRIPOS>MOLECULE
*****
 123 128 0 0 0
SMALL
GASTEIGER

@<TRIPOS>ATOM
     1 C         1.823138   -2.662426   -4.214785 C.3        1 UNL1     0.0009
     2 C         1.243541   -3.43036   -5.799519 C.2        1 UNL1     -0.0787
     3 C         1.01107   -4.603523   -6.615418 C.2        1 UNL1     -0.0649
     4 C         0.257609   -4.685494   -8.129331 C.2        1 UNL1     -0.0542
     5 C         -0.396844   -5.533967   -9.056079 C.2        1 UNL1     0.0115
     6 C         -0.730294   -7.015034   -9.385586 C.3        1 UNL1     -0.0348
     7 C         -1.292774   -4.875397   -10.213916 C.2        1 UNL1     0.2441
     8 O         -0.909141   -4.764395   -11.370216 O.2        1 UNL1     -0.2702
     9 N         -2.641252   -4.673194   -9.87205 N.am        1 UNL1     -0.2772
     10 C         -2.805711   -3.445872   -9.272085 C.2        1 UNL1     0.1049
     11 C         -2.537659   -3.388975   -7.980136 C.2        1 UNL1     0.0801
     12 C         -2.252368   -1.020365   -9.532968 C.ar        1 UNL1     0.0753
     13 C         -1.777492   -1.064078   -8.183453 C.ar        1 UNL1     0.0305
     14 C         -2.026759   -2.217371   -7.321576 C.2        1 UNL1     0.0924
     15 N         -2.328294   -4.380221   -7.096889 N.pl3        1 UNL1     -0.3170
     16 C         -2.249547   -3.791614   -5.786318 C.3        1 UNL1     0.1275
     17 N         -1.751284   -2.388314   -6.031685 N.2        1 UNL1     -0.2557
     18 C         -3.677411   -3.649435   -5.267962 C.3        1 UNL1     0.0016
     19 C         -4.346047   -5.014432   -5.303968 C.3        1 UNL1     0.0026
     20 N         -3.577327   -5.933832   -4.476441 N.3        1 UNL1     -0.3018
     21 C         -2.172723   -6.089589   -4.860102 C.3        1 UNL1     0.0026
     22 C         -1.519446   -4.707247   -4.812605 C.3        1 UNL1     0.0016
     23 C         -4.283101   -7.169443   -4.201133 C.3        1 UNL1     0.0012
     24 C         -5.51607   -7.299308   -5.109252 C.3        1 UNL1     -0.0339
     25 C         -6.671439   -8.014708   -4.38996 C.3        1 UNL1     -0.0615
     26 C         -5.935573   -5.930633   -5.616721 C.3        1 UNL1     -0.0615
     27 C         -2.116806   0.128374   -10.308944 C.ar        1 UNL1     0.1347
     28 C         -1.561696   1.303147   -9.833747 C.ar        1 UNL1     0.0342
     29 C         -1.056999   1.221364   -8.518545 C.ar        1 UNL1     0.1435
     30 C         -1.153191   0.066213   -7.741632 C.ar        1 UNL1     0.0774
     31 O         -0.586019   2.31199   -7.875335 O.3        1 UNL1     -0.4436
     32 C         -0.622451   1.95688   -6.484852 C.3        1 UNL1     0.3143
     33 C         -0.58958   0.442085   -6.461856 C.2        1 UNL1     0.2504
     34 C         -1.61017   2.641051   -10.51768 C.3        1 UNL1     -0.0327
     35 O         0.603494   2.409741   -5.897291 O.2        1 UNL1     -0.4528
     36 C         -0.210837   3.21029   -2.277336 C.3        1 UNL1     0.0854
     37 C         -0.824032   2.276431   -1.164042 C.3        1 UNL1     0.0236
     38 C         0.043873   2.167462   0.18006 C.3        1 UNL1     0.1131
     39 C         1.585392   1.823219   0.09353 C.3        1 UNL1     0.0200
     40 C         2.127546   0.627181   -0.935061 C.3        1 UNL1     0.0661
     41 C         1.499841   -0.944588   -1.049679 C.3        1 UNL1     0.0091
     42 C         1.370085   -2.071994   -2.491041 C.3        1 UNL1     0.0661
     43 C         -2.974429   -2.209362   -10.049857 C.2        1 UNL1     0.2131
     44 O         -3.746459   -2.171535   -10.990749 O.2        1 UNL1     -0.2851
     45 O         -2.56438   0.072842   -11.627288 O.3        1 UNL1     -0.5056
     46 O         -0.171667   -0.289436   -5.592328 O.2        1 UNL1     -0.2836
     47 C         3.374092   -2.669216   -4.147873 C.3        1 UNL1     -0.0566
     48 O         1.914918   -3.245623   -1.766562 O.3        1 UNL1     -0.3909
     49 C         0.170013   -0.992606   -0.330829 C.3        1 UNL1     -0.0577
     50 O         2.36597   1.147666   -2.227336 O.3        1 UNL1     -0.3910
     51 O         1.091691   3.689771   -2.030459 O.3        1 UNL1     -0.3753
     52 C         -1.560222   1.042332   -1.780462 C.3        1 UNL1     -0.0564
     53 O         -0.709255   1.574481   1.334831 O.3        1 UNL1     -0.4608
     54 C         -0.183377   0.730586   2.277817 C.2        1 UNL1     0.3042
     55 O         -0.323963   -0.489628   2.349596 O.2        1 UNL1     -0.2512
     56 C         0.699556   1.421502   3.277706 C.3        1 UNL1     0.0332
     57 C         2.390351   3.205078   0.119643 C.3        1 UNL1     -0.0567
     58 C         -1.991551   2.434381   -5.947181 C.3        1 UNL1     0.0210
     59 C         1.167862   5.076324   -1.702533 C.3        1 UNL1     0.0372
     60 C         -0.202622   2.632042   -3.64873 C.2        1 UNL1     -0.0208
     61 C         0.756292   2.618845   -4.575582 C.2        1 UNL1     0.0882
     62 H         1.531086   -1.680465   -4.606155 H        1 UNL1     0.0365
     63 H         1.010486   -2.538336   -6.384711 H        1 UNL1     0.0576
     64 H         1.169592   -5.61184   -6.226475 H        1 UNL1     0.0615
     65 H         0.220009   -3.643509   -8.458475 H        1 UNL1     0.0622
     66 H         -0.889985   4.073494   -2.318359 H        1 UNL1     0.0645
     67 H         -1.710665   2.829657   -0.808538 H        1 UNL1     0.0362
     68 H         -0.002815   3.215043   0.514602 H        1 UNL1     0.0741
     69 H         1.918572   1.472684   1.061271 H        1 UNL1     0.0359
     70 H         3.137235   0.457366   -0.514642 H        1 UNL1     0.0600
     71 H         2.156196   -1.468014   -0.327058 H        1 UNL1     0.0348
     72 H         2.131087   -1.324481   -2.758275 H        1 UNL1     0.0602
     73 H         -1.179349   2.293476   -3.89086 H        1 UNL1     0.0628
     74 H         1.795476   2.893652   -4.391691 H        1 UNL1     0.1022
     75 H         -0.668789   -7.64478   -8.465439 H        1 UNL1     0.0279
     76 H         -1.73794   -7.217876   -9.741357 H        1 UNL1     0.0279
     77 H         0.028753   -7.489864   -10.024402 H        1 UNL1     0.0279
     78 H         -2.934781   -5.382643   -9.203769 H        1 UNL1     0.1553
     79 H         -2.609836   -5.33116   -7.249803 H        1 UNL1     0.1484
     80 H         -3.649268   -3.243972   -4.249349 H        1 UNL1     0.0317
     81 H         -4.244439   -2.934871   -5.874204 H        1 UNL1     0.0317
     82 H         -4.442607   -5.393495   -6.332024 H        1 UNL1     0.0428
     83 H         -5.363486   -4.889794   -4.932035 H        1 UNL1     0.0428
     84 H         -1.598748   -6.722375   -4.176037 H        1 UNL1     0.0428
     85 H         -2.067803   -6.586369   -5.834534 H        1 UNL1     0.0428
     86 H         -0.470139   -4.877408   -4.967485 H        1 UNL1     0.0317
     87 H         -1.56374   -4.30672   -3.792452 H        1 UNL1     0.0317
     88 H         -3.603571   -8.005354   -4.412765 H        1 UNL1     0.0429
     89 H         -4.561984   -7.241903   -3.142008 H        1 UNL1     0.0429
     90 H         -5.246701   -7.879342   -5.999877 H        1 UNL1     0.0308
     91 H         -6.817934   -7.618246   -3.380773 H        1 UNL1     0.0233
     92 H         -7.601087   -7.911099   -4.954432 H        1 UNL1     0.0233
     93 H         -6.495297   -9.092205   -4.285988 H        1 UNL1     0.0233
     94 H         -6.871323   -5.621113   -5.138801 H        1 UNL1     0.0233
     95 H         -5.169884   -5.189831   -5.369953 H        1 UNL1     0.0233
     96 H         -6.085907   -5.935519   -6.699931 H        1 UNL1     0.0233
     97 H         -2.150878   3.378626   -9.932148 H        1 UNL1     0.0280
     98 H         -0.608319   3.060365   -10.678077 H        1 UNL1     0.0280
     99 H         -2.112529   2.53869   -11.493515 H        1 UNL1     0.0280
     100 H         -3.118622   -0.662375   -11.821955 H        1 UNL1     0.2922
     101 H         3.782539   -2.188151   -5.036358 H        1 UNL1     0.0236
     102 H         3.792077   -3.663227   -3.99227 H        1 UNL1     0.0236
     103 H         3.754861   -2.069094   -3.304628 H        1 UNL1     0.0236
     104 H         2.629947   -2.925711   -1.182301 H        1 UNL1     0.2098
     105 H         -0.669283   -1.282655   -0.957938 H        1 UNL1     0.0234
     106 H         0.171439   -1.574028   0.591057 H        1 UNL1     0.0234
     107 H         0.0   0.0   0.0 H        1 UNL1     0.0234
     108 H         2.4553   0.387743   -2.834217 H        1 UNL1     0.2098
     109 H         -2.397858   1.338126   -2.427442 H        1 UNL1     0.0234
     110 H         -0.890766   0.372636   -2.330988 H        1 UNL1     0.0234
     111 H         -1.997105   0.401736   -1.002828 H        1 UNL1     0.0234
     112 H         1.101807   0.691143   3.986308 H        1 UNL1     0.0342
     113 H         1.500221   1.982651   2.798238 H        1 UNL1     0.0342
     114 H         0.084699   2.135581   3.84269 H        1 UNL1     0.0342
     115 H         3.35946   3.103663   0.627314 H        1 UNL1     0.0234
     116 H         2.580281   3.626967   -0.869288 H        1 UNL1     0.0234
     117 H         1.907812   3.983712   0.735133 H        1 UNL1     0.0234
     118 H         -2.46206   1.684784   -5.287081 H        1 UNL1     0.0309
     119 H         -1.935646   3.391673   -5.41929 H        1 UNL1     0.0309
     120 H         -2.731751   2.569903   -6.743324 H        1 UNL1     0.0309
     121 H         2.146941   5.436292   -2.017468 H        1 UNL1     0.0524
     122 H         0.408012   5.674046   -2.232998 H        1 UNL1     0.0524
     123 H         1.043178   5.216894   -0.632586 H        1 UNL1     0.0524
@<TRIPOS>BOND
     1     1     2    1
     2     1    42    1
     3     2     3    2
     4     3     4    1
     5     4     5    2
     6     5     7    1
     7     6    75    1
     8     6    76    1
     9     6    77    1
    10     7     9   am
    11     9    10    1
    12    10    11    2
    13    10    43    1
    14    11    14    1
    15    11    15    1
    16    12    13   ar
    17    12    27   ar
    18    12    43    1
    19    13    14    1
    20    13    30   ar
    21    14    17    2
    22    15    16    1
    23    16    17    1
    24    16    18    1
    25    16    22    1
    26    18    19    1
    27    19    20    1
    28    20    21    1
    29    21    22    1
    30    23    24    1
    31    23    88    1
    32    23    89    1
    33    24    25    1
    34    24    26    1
    35    24    90    1
    36    25    91    1
    37    25    92    1
    38    25    93    1
    39    26    94    1
    40    26    95    1
    41    26    96    1
    42    27    28   ar
    43    28    29   ar
    44    29    30   ar
    45    29    31    1
    46    30    33    1
    47    31    32    1
    48    32    33    1
    49    32    35    1
    50    34    97    1
    51    34    98    1
    52    34    99    1
    53    35    61    1
    54    36    37    1
    55    36    60    1
    56    37    38    1
    57    38    39    1
    58    39    40    1
    59    40    41    1
    60    41    42    1
    61    45   100    1
    62    47   101    1
    63    47   102    1
    64    47   103    1
    65    48   104    1
    66    49   105    1
    67    49   106    1
    68    49   107    1
    69    50   108    1
    70    51    59    1
    71    52   109    1
    72    52   110    1
    73    52   111    1
    74    53    54    1
    75    54    55    2
    76    54    56    1
    77    56   112    1
    78    56   113    1
    79    56   114    1
    80    57   115    1
    81    57   116    1
    82    57   117    1
    83    58   118    1
    84    58   119    1
    85    58   120    1
    86    59   121    1
    87    59   122    1
    88    59   123    1
    89    60    61    2
    90     1    47    1
    91     1    62    1
    92     2    63    1
    93     3    64    1
    94     4    65    1
    95     5     6    1
    96     7     8    2
    97     9    78    1
    98    15    79    1
    99    18    80    1
   100    18    81    1
   101    19    82    1
   102    19    83    1
   103    20    23    1
   104    21    84    1
   105    21    85    1
   106    22    86    1
   107    22    87    1
   108    27    45    1
   109    28    34    1
   110    32    58    1
   111    33    46    2
   112    36    51    1
   113    36    66    1
   114    37    52    1
   115    37    67    1
   116    38    53    1
   117    38    68    1
   118    42    48    1
   119    42    72    1
   120    43    44    2
   121    60    73    1
   122    61    74    1
   123    39    69    1
   124    39    57    1
   125    40    70    1
   126    40    50    1
   127    41    71    1
   128    41    49    1
