@<TRIPOS>MOLECULE
*****
 123 128 0 0 0
SMALL
GASTEIGER

@<TRIPOS>ATOM
     1 C         0.586759   0.739587   4.018375 C.3        1 UNL1     0.0009
     2 C         1.201143   -0.433758   5.315614 C.2        1 UNL1     -0.0787
     3 C         0.938109   -1.391182   6.369274 C.2        1 UNL1     -0.0649
     4 C         2.056309   -2.336252   7.219468 C.2        1 UNL1     -0.0542
     5 C         2.229032   -3.49437   8.016968 C.2        1 UNL1     0.0115
     6 C         1.475694   -4.608829   8.794005 C.3        1 UNL1     -0.0348
     7 C         3.703555   -4.104505   8.191632 C.2        1 UNL1     0.2441
     8 O         4.377741   -3.937659   9.198687 O.2        1 UNL1     -0.2702
     9 N         4.06509   -5.057537   7.223554 N.am        1 UNL1     -0.2772
     10 C         4.626796   -4.441063   6.129129 C.2        1 UNL1     0.1049
     11 C         3.782213   -3.953196   5.238687 C.2        1 UNL1     0.0801
     12 C         6.354107   -2.755578   5.4712 C.ar        1 UNL1     0.0753
     13 C         5.335964   -2.138043   4.677069 C.ar        1 UNL1     0.0305
     14 C         4.053193   -2.793688   4.432779 C.2        1 UNL1     0.0924
     15 N         2.45693   -4.138532   5.112975 N.pl3        1 UNL1     -0.3170
     16 C         2.042654   -3.525674   3.878862 C.3        1 UNL1     0.1275
     17 N         3.043951   -2.419584   3.651496 N.2        1 UNL1     -0.2557
     18 C         2.27697   -4.544102   2.767285 C.3        1 UNL1     0.0016
     19 C         1.531568   -5.822972   3.114355 C.3        1 UNL1     0.0026
     20 N         0.11479   -5.515603   3.253246 N.3        1 UNL1     -0.3018
     21 C         -0.205327   -4.499131   4.257575 C.3        1 UNL1     0.0026
     22 C         0.550284   -3.22184   3.886797 C.3        1 UNL1     0.0016
     23 C         -0.718777   -6.700806   3.286486 C.3        1 UNL1     0.0012
     24 C         -1.970965   -6.454774   4.142786 C.3        1 UNL1     -0.0339
     25 C         -2.372298   -4.970533   4.138727 C.3        1 UNL1     -0.0615
     26 C         -3.10849   -7.342727   3.669123 C.3        1 UNL1     -0.0615
     27 C         7.616497   -2.181244   5.600158 C.ar        1 UNL1     0.1347
     28 C         7.989304   -1.016678   4.95297 C.ar        1 UNL1     0.0342
     29 C         6.955616   -0.400566   4.216045 C.ar        1 UNL1     0.1435
     30 C         5.675543   -0.945356   4.107245 C.ar        1 UNL1     0.0774
     31 O         7.190643   0.680456   3.4407 O.3        1 UNL1     -0.4436
     32 C         6.085894   0.716849   2.524687 C.3        1 UNL1     0.3143
     33 C         4.973668   -0.046539   3.214908 C.2        1 UNL1     0.2504
     34 C         9.388917   -0.479366   4.841256 C.3        1 UNL1     -0.0327
     35 O         5.65781   2.080876   2.427583 O.2        1 UNL1     -0.4528
     36 C         4.24865   2.482554   -1.07399 C.3        1 UNL1     0.0854
     37 C         3.083222   1.68518   -1.776482 C.3        1 UNL1     0.0236
     38 C         1.896796   2.594318   -2.357521 C.3        1 UNL1     0.1131
     39 C         1.21382   3.679804   -1.43149 C.3        1 UNL1     0.0200
     40 C         0.820178   3.315826   0.148068 C.3        1 UNL1     0.0661
     41 C         -0.037972   1.948181   0.668391 C.3        1 UNL1     0.0091
     42 C         0.08669   0.986362   2.225557 C.3        1 UNL1     0.0661
     43 C         6.049922   -4.074025   6.080648 C.2        1 UNL1     0.2131
     44 O         6.905054   -4.867394   6.43001 O.2        1 UNL1     -0.2851
     45 O         8.53541   -2.822483   6.428318 O.3        1 UNL1     -0.5056
     46 O         3.777139   0.075343   3.075926 O.2        1 UNL1     -0.2836
     47 C         0.048009   2.037926   4.677196 C.3        1 UNL1     -0.0566
     48 O         -1.377692   0.955391   2.457382 O.3        1 UNL1     -0.3909
     49 C         -0.095535   0.947954   -0.464625 C.3        1 UNL1     -0.0577
     50 O         1.918687   3.552058   1.005503 O.3        1 UNL1     -0.3910
     51 O         4.026408   3.862237   -0.88821 O.3        1 UNL1     -0.3753
     52 C         2.812798   0.313203   -1.076841 C.3        1 UNL1     -0.0564
     53 O         0.994835   1.867007   -3.311361 O.3        1 UNL1     -0.4608
     54 C         -0.284335   1.456996   -3.04017 C.2        1 UNL1     0.3042
     55 O         -1.325722   2.084138   -3.230026 O.2        1 UNL1     -0.2512
     56 C         -0.365916   0.056016   -2.504152 C.3        1 UNL1     0.0332
     57 C         1.934172   5.079084   -1.716591 C.3        1 UNL1     -0.0567
     58 C         6.53033   -0.073232   1.27178 C.3        1 UNL1     0.0210
     59 C         5.070318   4.550268   -0.200657 C.3        1 UNL1     0.0372
     60 C         4.680431   1.936378   0.241464 C.2        1 UNL1     -0.0208
     61 C         4.940661   2.55819   1.392279 C.2        1 UNL1     0.0882
     62 H         1.626924   0.940802   3.735037 H        1 UNL1     0.0365
     63 H         2.278074   -0.265951   5.248305 H        1 UNL1     0.0576
     64 H         -0.077079   -1.717709   6.605667 H        1 UNL1     0.0615
     65 H         3.020233   -1.88062   6.97712 H        1 UNL1     0.0622
     66 H         5.109427   2.363308   -1.746961 H        1 UNL1     0.0645
     67 H         3.541689   1.30289   -2.705041 H        1 UNL1     0.0362
     68 H         2.456487   3.166104   -3.113383 H        1 UNL1     0.0741
     69 H         0.256881   3.949027   -1.858332 H        1 UNL1     0.0359
     70 H         0.117246   4.142846   0.364829 H        1 UNL1     0.0600
     71 H         -1.0698   2.350812   0.655083 H        1 UNL1     0.0348
     72 H         0.547293   1.962825   2.434556 H        1 UNL1     0.0602
     73 H         4.89746   0.902433   0.136087 H        1 UNL1     0.0628
     74 H         4.694104   3.600016   1.599753 H        1 UNL1     0.1022
     75 H         2.146754   -5.482948   8.974637 H        1 UNL1     0.0279
     76 H         1.141265   -4.358758   9.798341 H        1 UNL1     0.0279
     77 H         0.67211   -5.071079   8.202161 H        1 UNL1     0.0279
     78 H         3.234956   -5.552308   6.903934 H        1 UNL1     0.1553
     79 H         1.958321   -4.899498   5.536357 H        1 UNL1     0.1484
     80 H         1.928133   -4.122561   1.81682 H        1 UNL1     0.0317
     81 H         3.345569   -4.750971   2.645011 H        1 UNL1     0.0317
     82 H         1.926931   -6.28927   4.028776 H        1 UNL1     0.0428
     83 H         1.713686   -6.535953   2.309655 H        1 UNL1     0.0428
     84 H         -1.265631   -4.229409   4.286184 H        1 UNL1     0.0428
     85 H         0.008332   -4.8499   5.276706 H        1 UNL1     0.0428
     86 H         0.190908   -2.466748   4.561091 H        1 UNL1     0.0317
     87 H         0.219948   -2.862846   2.904403 H        1 UNL1     0.0317
     88 H         -1.036047   -6.924123   2.259469 H        1 UNL1     0.0429
     89 H         -0.157857   -7.572843   3.646617 H        1 UNL1     0.0429
     90 H         -1.764708   -6.7579   5.176123 H        1 UNL1     0.0308
     91 H         -1.609241   -4.350879   4.619223 H        1 UNL1     0.0233
     92 H         -2.531301   -4.616152   3.11758 H        1 UNL1     0.0233
     93 H         -3.312083   -4.790558   4.674681 H        1 UNL1     0.0233
     94 H         -3.829895   -7.496565   4.478904 H        1 UNL1     0.0233
     95 H         -3.633001   -6.865718   2.836469 H        1 UNL1     0.0233
     96 H         -2.742325   -8.319985   3.342231 H        1 UNL1     0.0233
     97 H         9.466748   0.536209   5.217793 H        1 UNL1     0.0280
     98 H         10.107205   -1.071525   5.423206 H        1 UNL1     0.0280
     99 H         9.701537   -0.480905   3.784202 H        1 UNL1     0.0280
     100 H         8.813321   -2.315761   7.17103 H        1 UNL1     0.2922
     101 H         -0.999174   1.90543   4.948318 H        1 UNL1     0.0236
     102 H         0.202735   2.925502   4.064617 H        1 UNL1     0.0236
     103 H         0.557517   2.261346   5.629392 H        1 UNL1     0.0236
     104 H         -1.537211   1.248949   3.375722 H        1 UNL1     0.2098
     105 H         -1.029341   0.953082   -1.021215 H        1 UNL1     0.0234
     106 H         0.752177   0.98545   -1.14866 H        1 UNL1     0.0234
     107 H         0.0   0.0   0.0 H        1 UNL1     0.0234
     108 H         1.89769   2.865515   1.699755 H        1 UNL1     0.2098
     109 H         3.499832   -0.472151   -1.421683 H        1 UNL1     0.0234
     110 H         2.844729   0.373859   0.01634 H        1 UNL1     0.0234
     111 H         1.802738   -0.059398   -1.293388 H        1 UNL1     0.0234
     112 H         0.618486   -0.419236   -2.553485 H        1 UNL1     0.0342
     113 H         -0.763043   0.027798   -1.490576 H        1 UNL1     0.0342
     114 H         -1.049271   -0.517461   -3.145489 H        1 UNL1     0.0342
     115 H         2.128158   5.227785   -2.78778 H        1 UNL1     0.0234
     116 H         1.375271   5.946792   -1.360553 H        1 UNL1     0.0234
     117 H         2.956159   5.13976   -1.304521 H        1 UNL1     0.0234
     118 H         5.669575   -0.459914   0.698556 H        1 UNL1     0.0309
     119 H         7.173843   0.507658   0.603453 H        1 UNL1     0.0309
     120 H         7.09333   -0.978622   1.523587 H        1 UNL1     0.0309
     121 H         5.936886   3.890283   -0.171731 H        1 UNL1     0.0524
     122 H         5.374324   5.474794   -0.719183 H        1 UNL1     0.0524
     123 H         4.755071   4.799439   0.808614 H        1 UNL1     0.0524
@<TRIPOS>BOND
     1     1     2    1
     2     1    42    1
     3     2     3    2
     4     3     4    1
     5     4     5    2
     6     5     7    1
     7     6    75    1
     8     6    76    1
     9     6    77    1
    10     7     9   am
    11     9    10    1
    12    10    11    2
    13    10    43    1
    14    11    14    1
    15    11    15    1
    16    12    13   ar
    17    12    27   ar
    18    12    43    1
    19    13    14    1
    20    13    30   ar
    21    14    17    2
    22    15    16    1
    23    16    17    1
    24    16    18    1
    25    16    22    1
    26    18    19    1
    27    19    20    1
    28    20    21    1
    29    21    22    1
    30    23    24    1
    31    23    88    1
    32    23    89    1
    33    24    25    1
    34    24    26    1
    35    24    90    1
    36    25    91    1
    37    25    92    1
    38    25    93    1
    39    26    94    1
    40    26    95    1
    41    26    96    1
    42    27    28   ar
    43    28    29   ar
    44    29    30   ar
    45    29    31    1
    46    30    33    1
    47    31    32    1
    48    32    33    1
    49    32    35    1
    50    34    97    1
    51    34    98    1
    52    34    99    1
    53    35    61    1
    54    36    37    1
    55    36    60    1
    56    37    38    1
    57    38    39    1
    58    39    40    1
    59    40    41    1
    60    41    42    1
    61    45   100    1
    62    47   101    1
    63    47   102    1
    64    47   103    1
    65    48   104    1
    66    49   105    1
    67    49   106    1
    68    49   107    1
    69    50   108    1
    70    51    59    1
    71    52   109    1
    72    52   110    1
    73    52   111    1
    74    53    54    1
    75    54    55    2
    76    54    56    1
    77    56   112    1
    78    56   113    1
    79    56   114    1
    80    57   115    1
    81    57   116    1
    82    57   117    1
    83    58   118    1
    84    58   119    1
    85    58   120    1
    86    59   121    1
    87    59   122    1
    88    59   123    1
    89    60    61    2
    90     1    47    1
    91     1    62    1
    92     2    63    1
    93     3    64    1
    94     4    65    1
    95     5     6    1
    96     7     8    2
    97     9    78    1
    98    15    79    1
    99    18    80    1
   100    18    81    1
   101    19    82    1
   102    19    83    1
   103    20    23    1
   104    21    84    1
   105    21    85    1
   106    22    86    1
   107    22    87    1
   108    27    45    1
   109    28    34    1
   110    32    58    1
   111    33    46    2
   112    36    51    1
   113    36    66    1
   114    37    52    1
   115    37    67    1
   116    38    53    1
   117    38    68    1
   118    42    48    1
   119    42    72    1
   120    43    44    2
   121    60    73    1
   122    61    74    1
   123    39    69    1
   124    39    57    1
   125    40    70    1
   126    40    50    1
   127    41    71    1
   128    41    49    1
