@<TRIPOS>MOLECULE
*****
 123 128 0 0 0
SMALL
GASTEIGER

@<TRIPOS>ATOM
     1 C         4.524792   2.621   -1.589208 C.3        1 UNL1     0.0009
     2 C         6.15022   2.449945   -2.464286 C.2        1 UNL1     -0.0787
     3 C         7.59473   2.361159   -2.42486 C.2        1 UNL1     -0.0649
     4 C         8.654253   2.060173   -3.710619 C.2        1 UNL1     -0.0542
     5 C         9.955112   1.625757   -4.065762 C.2        1 UNL1     0.0115
     6 C         11.361046   1.278294   -3.503673 C.3        1 UNL1     -0.0348
     7 C         10.230273   1.149046   -5.573748 C.2        1 UNL1     0.2441
     8 O         10.79716   1.850366   -6.400376 O.2        1 UNL1     -0.2702
     9 N         10.012224   -0.219835   -5.807781 N.am        1 UNL1     -0.2772
     10 C         8.698502   -0.445327   -6.149264 C.2        1 UNL1     0.1049
     11 C         7.845733   -0.548009   -5.146037 C.2        1 UNL1     0.0801
     12 C         6.877557   0.355951   -7.665657 C.ar        1 UNL1     0.0753
     13 C         6.046976   0.426558   -6.502146 C.ar        1 UNL1     0.0305
     14 C         6.466741   -0.14887   -5.22632 C.2        1 UNL1     0.0924
     15 N         8.074253   -0.677685   -3.827898 N.pl3        1 UNL1     -0.3170
     16 C         6.810667   -0.923012   -3.184921 C.3        1 UNL1     0.1275
     17 N         5.794517   -0.262551   -4.08434 N.2        1 UNL1     -0.2557
     18 C         6.542433   -2.422384   -3.272302 C.3        1 UNL1     0.0016
     19 C         7.716503   -3.163401   -2.65259 C.3        1 UNL1     0.0026
     20 N         7.860497   -2.736724   -1.267584 N.3        1 UNL1     -0.3018
     21 C         8.060859   -1.298612   -1.077694 C.3        1 UNL1     0.0026
     22 C         6.867836   -0.574094   -1.703525 C.3        1 UNL1     0.0016
     23 C         8.748781   -3.59026   -0.503993 C.3        1 UNL1     0.0012
     24 C         8.102033   -4.963603   -0.264406 C.3        1 UNL1     -0.0339
     25 C         8.506338   -5.545226   1.100258 C.3        1 UNL1     -0.0615
     26 C         6.593117   -4.859952   -0.403003 C.3        1 UNL1     -0.0615
     27 C         6.422098   0.798119   -8.905481 C.ar        1 UNL1     0.1347
     28 C         5.146234   1.291393   -9.112609 C.ar        1 UNL1     0.0342
     29 C         4.363155   1.397049   -7.943512 C.ar        1 UNL1     0.1435
     30 C         4.818804   0.991731   -6.688394 C.ar        1 UNL1     0.0774
     31 O         3.061803   1.755703   -7.99697 O.3        1 UNL1     -0.4436
     32 C         2.508748   1.300409   -6.7529 C.3        1 UNL1     0.3143
     33 C         3.688812   1.201197   -5.807481 C.2        1 UNL1     0.2504
     34 C         4.505942   1.547211   -10.44853 C.3        1 UNL1     -0.0327
     35 O         1.662374   2.344247   -6.2556 O.2        1 UNL1     -0.4528
     36 C         -1.062318   0.61247   -4.259332 C.3        1 UNL1     0.0854
     37 C         -0.927626   -0.363672   -3.027858 C.3        1 UNL1     0.0236
     38 C         -1.746431   0.078872   -1.721927 C.3        1 UNL1     0.1131
     39 C         -1.591089   1.548804   -1.158512 C.3        1 UNL1     0.0200
     40 C         -0.085239   2.258601   -1.053438 C.3        1 UNL1     0.0661
     41 C         1.295175   1.561894   -0.355821 C.3        1 UNL1     0.0091
     42 C         3.069102   1.751098   -0.783357 C.3        1 UNL1     0.0661
     43 C         8.208082   -0.28637   -7.526426 C.2        1 UNL1     0.2131
     44 O         8.829683   -0.756568   -8.461982 O.2        1 UNL1     -0.2851
     45 O         7.309365   0.736706   -9.978059 O.3        1 UNL1     -0.5056
     46 O         3.697419   1.296057   -4.600509 O.2        1 UNL1     -0.2836
     47 C         4.319874   4.084429   -1.113428 C.3        1 UNL1     -0.0566
     48 O         3.5007   1.971888   0.618104 O.3        1 UNL1     -0.3909
     49 C         1.045757   0.08423   -0.151382 C.3        1 UNL1     -0.0577
     50 O         0.255771   2.892927   -2.269606 O.3        1 UNL1     -0.3910
     51 O         -1.732864   1.827595   -4.011801 O.3        1 UNL1     -0.3753
     52 C         0.500071   -0.995187   -2.93943 C.3        1 UNL1     -0.0564
     53 O         -1.890874   -1.01479   -0.704397 O.3        1 UNL1     -0.4608
     54 C         -1.849522   -0.846593   0.654989 C.2        1 UNL1     0.3042
     55 O         -1.211774   -1.511192   1.470725 O.2        1 UNL1     -0.2512
     56 C         -2.647617   0.330092   1.139932 C.3        1 UNL1     0.0332
     57 C         -2.787469   2.424321   -1.758779 C.3        1 UNL1     -0.0567
     58 C         1.957347   -0.12073   -7.013379 C.3        1 UNL1     0.0210
     59 C         -3.03498   1.921731   -4.587559 C.3        1 UNL1     0.0372
     60 C         0.220196   0.958906   -4.930376 C.2        1 UNL1     -0.0208
     61 C         0.683978   2.135475   -5.353856 C.2        1 UNL1     0.0882
     62 H         4.016313   2.532422   -2.556842 H        1 UNL1     0.0365
     63 H         5.823155   2.464951   -3.50605 H        1 UNL1     0.0576
     64 H         8.140141   2.320597   -1.47935 H        1 UNL1     0.0615
     65 H         8.032944   2.202275   -4.599025 H        1 UNL1     0.0622
     66 H         -1.64558   0.045461   -4.998489 H        1 UNL1     0.0645
     67 H         -1.482007   -1.266063   -3.339166 H        1 UNL1     0.0362
     68 H         -2.771045   0.025947   -2.120533 H        1 UNL1     0.0741
     69 H         -1.933561   1.566242   -0.132443 H        1 UNL1     0.0359
     70 H         -0.314951   3.091684   -0.36187 H        1 UNL1     0.0600
     71 H         1.201652   1.943125   0.679975 H        1 UNL1     0.0348
     72 H         2.555767   2.615155   -1.229684 H        1 UNL1     0.0602
     73 H         0.740775   0.065485   -5.171299 H        1 UNL1     0.0628
     74 H         0.242048   3.099775   -5.100753 H        1 UNL1     0.1022
     75 H         11.709204   2.072526   -2.800099 H        1 UNL1     0.0279
     76 H         11.431793   0.379238   -2.895593 H        1 UNL1     0.0279
     77 H         12.146478   1.310621   -4.272928 H        1 UNL1     0.0279
     78 H         10.202602   -0.746711   -4.957937 H        1 UNL1     0.1553
     79 H         8.949005   -0.981769   -3.441538 H        1 UNL1     0.1484
     80 H         5.605084   -2.648932   -2.749981 H        1 UNL1     0.0317
     81 H         6.404941   -2.735301   -4.312893 H        1 UNL1     0.0317
     82 H         8.646168   -2.997442   -3.216587 H        1 UNL1     0.0428
     83 H         7.505378   -4.230606   -2.727089 H        1 UNL1     0.0428
     84 H         8.08605   -0.994254   -0.026722 H        1 UNL1     0.0428
     85 H         9.029197   -0.964767   -1.47542 H        1 UNL1     0.0428
     86 H         6.98068   0.458759   -1.430631 H        1 UNL1     0.0317
     87 H         5.9414   -0.870734   -1.196753 H        1 UNL1     0.0317
     88 H         9.668473   -3.733835   -1.086099 H        1 UNL1     0.0429
     89 H         9.038372   -3.118199   0.443672 H        1 UNL1     0.0429
     90 H         8.428067   -5.656049   -1.049539 H        1 UNL1     0.0308
     91 H         9.356186   -6.227806   1.005674 H        1 UNL1     0.0233
     92 H         8.76405   -4.746403   1.799598 H        1 UNL1     0.0233
     93 H         7.693536   -6.112358   1.569884 H        1 UNL1     0.0233
     94 H         6.12787   -5.83128   -0.203244 H        1 UNL1     0.0233
     95 H         6.199718   -4.142198   0.322275 H        1 UNL1     0.0233
     96 H         6.305816   -4.539392   -1.408323 H        1 UNL1     0.0233
     97 H         3.590662   0.977249   -10.577512 H        1 UNL1     0.0280
     98 H         4.224785   2.60054   -10.577771 H        1 UNL1     0.0280
     99 H         5.204928   1.265136   -11.252861 H        1 UNL1     0.0280
     100 H         8.159034   1.102281   -9.804736 H        1 UNL1     0.2922
     101 H         3.602749   4.585348   -1.763402 H        1 UNL1     0.0236
     102 H         5.252136   4.641551   -1.026909 H        1 UNL1     0.0236
     103 H         3.868688   4.133799   -0.108347 H        1 UNL1     0.0236
     104 H         4.448879   2.207763   0.601041 H        1 UNL1     0.2098
     105 H         1.309842   -0.537835   -1.002913 H        1 UNL1     0.0234
     106 H         1.471803   -0.327183   0.763578 H        1 UNL1     0.0234
     107 H         0.0   0.0   0.0 H        1 UNL1     0.0234
     108 H         0.276896   3.854354   -2.09937 H        1 UNL1     0.2098
     109 H         0.747841   -1.589684   -3.829876 H        1 UNL1     0.0234
     110 H         1.287832   -0.25509   -2.762136 H        1 UNL1     0.0234
     111 H         0.585841   -1.684253   -2.088679 H        1 UNL1     0.0234
     112 H         -2.542603   0.429429   2.224575 H        1 UNL1     0.0342
     113 H         -2.366062   1.252396   0.634042 H        1 UNL1     0.0342
     114 H         -3.70721   0.140003   0.920177 H        1 UNL1     0.0342
     115 H         -3.660184   2.435439   -1.091371 H        1 UNL1     0.0234
     116 H         -2.518204   3.462209   -1.964533 H        1 UNL1     0.0234
     117 H         -3.226842   1.99802   -2.677017 H        1 UNL1     0.0234
     118 H         0.853994   -0.149029   -6.98478 H        1 UNL1     0.0309
     119 H         2.302164   -0.548505   -7.960117 H        1 UNL1     0.0309
     120 H         2.248556   -0.833903   -6.234478 H        1 UNL1     0.0309
     121 H         -2.955871   2.537944   -5.482758 H        1 UNL1     0.0524
     122 H         -3.428547   0.938568   -4.895023 H        1 UNL1     0.0524
     123 H         -3.726328   2.373185   -3.88164 H        1 UNL1     0.0524
@<TRIPOS>BOND
     1     1     2    1
     2     1    42    1
     3     2     3    2
     4     3     4    1
     5     4     5    2
     6     5     7    1
     7     6    75    1
     8     6    76    1
     9     6    77    1
    10     7     9   am
    11     9    10    1
    12    10    11    2
    13    10    43    1
    14    11    14    1
    15    11    15    1
    16    12    13   ar
    17    12    27   ar
    18    12    43    1
    19    13    14    1
    20    13    30   ar
    21    14    17    2
    22    15    16    1
    23    16    17    1
    24    16    18    1
    25    16    22    1
    26    18    19    1
    27    19    20    1
    28    20    21    1
    29    21    22    1
    30    23    24    1
    31    23    88    1
    32    23    89    1
    33    24    25    1
    34    24    26    1
    35    24    90    1
    36    25    91    1
    37    25    92    1
    38    25    93    1
    39    26    94    1
    40    26    95    1
    41    26    96    1
    42    27    28   ar
    43    28    29   ar
    44    29    30   ar
    45    29    31    1
    46    30    33    1
    47    31    32    1
    48    32    33    1
    49    32    35    1
    50    34    97    1
    51    34    98    1
    52    34    99    1
    53    35    61    1
    54    36    37    1
    55    36    60    1
    56    37    38    1
    57    38    39    1
    58    39    40    1
    59    40    41    1
    60    41    42    1
    61    45   100    1
    62    47   101    1
    63    47   102    1
    64    47   103    1
    65    48   104    1
    66    49   105    1
    67    49   106    1
    68    49   107    1
    69    50   108    1
    70    51    59    1
    71    52   109    1
    72    52   110    1
    73    52   111    1
    74    53    54    1
    75    54    55    2
    76    54    56    1
    77    56   112    1
    78    56   113    1
    79    56   114    1
    80    57   115    1
    81    57   116    1
    82    57   117    1
    83    58   118    1
    84    58   119    1
    85    58   120    1
    86    59   121    1
    87    59   122    1
    88    59   123    1
    89    60    61    2
    90     1    47    1
    91     1    62    1
    92     2    63    1
    93     3    64    1
    94     4    65    1
    95     5     6    1
    96     7     8    2
    97     9    78    1
    98    15    79    1
    99    18    80    1
   100    18    81    1
   101    19    82    1
   102    19    83    1
   103    20    23    1
   104    21    84    1
   105    21    85    1
   106    22    86    1
   107    22    87    1
   108    27    45    1
   109    28    34    1
   110    32    58    1
   111    33    46    2
   112    36    51    1
   113    36    66    1
   114    37    52    1
   115    37    67    1
   116    38    53    1
   117    38    68    1
   118    42    48    1
   119    42    72    1
   120    43    44    2
   121    60    73    1
   122    61    74    1
   123    39    69    1
   124    39    57    1
   125    40    70    1
   126    40    50    1
   127    41    71    1
   128    41    49    1
