@<TRIPOS>MOLECULE
*****
 123 128 0 0 0
SMALL
GASTEIGER

@<TRIPOS>ATOM
     1 C         1.981062   -0.378375   3.602435 C.3        1 UNL1     0.0009
     2 C         1.946308   0.778327   5.050837 C.2        1 UNL1     -0.0787
     3 C         2.517338   1.886103   5.78759 C.2        1 UNL1     -0.0649
     4 C         1.888103   2.660917   7.1551 C.2        1 UNL1     -0.0542
     5 C         1.922106   3.839631   7.94031 C.2        1 UNL1     0.0115
     6 C         2.684658   5.172925   8.173039 C.3        1 UNL1     -0.0348
     7 C         0.711161   4.13424   8.952143 C.2        1 UNL1     0.2441
     8 O         0.790617   3.94481   10.158099 O.2        1 UNL1     -0.2702
     9 N         -0.353137   4.867587   8.39931 N.am        1 UNL1     -0.2772
     10 C         -1.265357   4.021359   7.81188 C.2        1 UNL1     0.1049
     11 C         -0.98552   3.626261   6.583136 C.2        1 UNL1     0.0801
     12 C         -2.589038   1.938688   8.221373 C.ar        1 UNL1     0.0753
     13 C         -2.086459   1.46645   6.967174 C.ar        1 UNL1     0.0305
     14 C         -1.373482   2.34973   6.047104 C.2        1 UNL1     0.0924
     15 N         -0.05768   4.076515   5.721213 N.pl3        1 UNL1     -0.3170
     16 C         -0.280995   3.427546   4.456609 C.3        1 UNL1     0.1275
     17 N         -0.929781   2.1131   4.815819 N.2        1 UNL1     -0.2557
     18 C         -1.342184   4.234945   3.715201 C.3        1 UNL1     0.0016
     19 C         -0.869203   5.675803   3.606544 C.3        1 UNL1     0.0026
     20 N         0.400185   5.698887   2.892996 N.3        1 UNL1     -0.3018
     21 C         1.467786   4.899343   3.497418 C.3        1 UNL1     0.0026
     22 C         0.972958   3.455055   3.592667 C.3        1 UNL1     0.0016
     23 C         0.787736   7.031305   2.474536 C.3        1 UNL1     0.0012
     24 C         -0.129105   7.529532   1.346295 C.3        1 UNL1     -0.0339
     25 C         0.640359   8.400499   0.339617 C.3        1 UNL1     -0.0615
     26 C         -0.803937   6.351635   0.665163 C.3        1 UNL1     -0.0615
     27 C         -3.370995   1.125183   9.037995 C.ar        1 UNL1     0.1347
     28 C         -3.748103   -0.159658   8.69011 C.ar        1 UNL1     0.0342
     29 C         -3.201245   -0.620501   7.473667 C.ar        1 UNL1     0.1435
     30 C         -2.38677   0.170516   6.662406 C.ar        1 UNL1     0.0774
     31 O         -3.562649   -1.809632   6.944178 O.3        1 UNL1     -0.4436
     32 C         -3.202014   -1.713981   5.557937 C.3        1 UNL1     0.3143
     33 C         -2.120594   -0.653965   5.50217 C.2        1 UNL1     0.2504
     34 C         -4.783384   -0.994864   9.390627 C.3        1 UNL1     -0.0327
     35 O         -2.588379   -2.955709   5.190765 O.2        1 UNL1     -0.4528
     36 C         -3.362717   -3.450222   1.507839 C.3        1 UNL1     0.0854
     37 C         -3.035969   -2.50821   0.285803 C.3        1 UNL1     0.0236
     38 C         -2.209364   -3.202115   -0.900352 C.3        1 UNL1     0.1131
     39 C         -0.883466   -3.999613   -0.571318 C.3        1 UNL1     0.0200
     40 C         0.2323   -3.377798   0.501459 C.3        1 UNL1     0.0661
     41 C         0.870603   -1.806398   0.471779 C.3        1 UNL1     0.0091
     42 C         1.420153   -0.719084   1.843328 C.3        1 UNL1     0.0661
     43 C         -2.324734   3.353561   8.582672 C.2        1 UNL1     0.2131
     44 O         -2.993367   3.979501   9.385085 O.2        1 UNL1     -0.2851
     45 O         -3.781899   1.645728   10.263404 O.3        1 UNL1     -0.5056
     46 O         -1.22706   -0.53084   4.694525 O.2        1 UNL1     -0.2836
     47 C         3.093801   -1.444449   3.790264 C.3        1 UNL1     -0.0566
     48 O         2.697451   -0.346871   1.188283 O.3        1 UNL1     -0.3909
     49 C         0.031633   -0.95633   -0.456127 C.3        1 UNL1     -0.0577
     50 O         -0.090349   -3.743269   1.828128 O.3        1 UNL1     -0.3910
     51 O         -2.747312   -4.718443   1.489858 O.3        1 UNL1     -0.3753
     52 C         -2.760212   -1.038184   0.741797 C.3        1 UNL1     -0.0564
     53 O         -2.215419   -2.414045   -2.17755 O.3        1 UNL1     -0.4608
     54 C         -1.483205   -2.709457   -3.297605 C.2        1 UNL1     0.3042
     55 O         -0.449187   -2.162883   -3.679577 O.2        1 UNL1     -0.2512
     56 C         -2.020745   -3.875621   -4.077237 C.3        1 UNL1     0.0332
     57 C         -1.272387   -5.544601   -0.430153 C.3        1 UNL1     -0.0567
     58 C         -4.453256   -1.189683   4.815621 C.3        1 UNL1     0.0210
     59 C         -3.452604   -5.737007   2.19764 C.3        1 UNL1     0.0372
     60 C         -3.090951   -2.860189   2.84693 C.2        1 UNL1     -0.0208
     61 C         -2.493492   -3.384893   3.917664 C.2        1 UNL1     0.0882
     62 H         1.05015   -0.830364   3.965506 H        1 UNL1     0.0365
     63 H         1.100597   0.376009   5.612427 H        1 UNL1     0.0576
     64 H         3.371559   2.448742   5.404377 H        1 UNL1     0.0615
     65 H         1.10226   1.983438   7.499999 H        1 UNL1     0.0622
     66 H         -4.450709   -3.598327   1.458999 H        1 UNL1     0.0645
     67 H         -4.015606   -2.344495   -0.195932 H        1 UNL1     0.0362
     68 H         -2.939213   -3.965101   -1.211308 H        1 UNL1     0.0741
     69 H         -0.30582   -4.104476   -1.480019 H        1 UNL1     0.0359
     70 H         1.109655   -4.003105   0.247888 H        1 UNL1     0.0600
     71 H         1.773728   -1.976273   -0.146658 H        1 UNL1     0.0348
     72 H         1.412818   -1.740599   2.250475 H        1 UNL1     0.0602
     73 H         -3.572747   -1.916691   2.917162 H        1 UNL1     0.0628
     74 H         -1.928729   -4.317772   3.913475 H        1 UNL1     0.1022
     75 H         3.785872   4.992468   8.215413 H        1 UNL1     0.0279
     76 H         2.600175   5.923169   7.390054 H        1 UNL1     0.0279
     77 H         2.496857   5.602137   9.168132 H        1 UNL1     0.0279
     78 H         -0.000292   5.48869   7.674183 H        1 UNL1     0.1553
     79 H         0.389897   4.97101   5.801755 H        1 UNL1     0.1484
     80 H         -1.502972   3.790467   2.725579 H        1 UNL1     0.0317
     81 H         -2.303465   4.191289   4.23835 H        1 UNL1     0.0317
     82 H         -0.776343   6.149462   4.594946 H        1 UNL1     0.0428
     83 H         -1.641366   6.234066   3.076301 H        1 UNL1     0.0428
     84 H         2.384782   4.86935   2.900736 H        1 UNL1     0.0428
     85 H         1.791123   5.312301   4.462942 H        1 UNL1     0.0428
     86 H         1.821176   2.878903   3.912921 H        1 UNL1     0.0317
     87 H         0.764328   3.063516   2.589539 H        1 UNL1     0.0317
     88 H         0.680223   7.704379   3.335179 H        1 UNL1     0.0429
     89 H         1.842113   7.063096   2.171133 H        1 UNL1     0.0429
     90 H         -0.938553   8.128962   1.779528 H        1 UNL1     0.0308
     91 H         1.5921   7.938778   0.060144 H        1 UNL1     0.0233
     92 H         0.044788   8.567769   -0.560897 H        1 UNL1     0.0233
     93 H         0.874407   9.394197   0.740392 H        1 UNL1     0.0233
     94 H         -1.131452   6.634188   -0.341183 H        1 UNL1     0.0233
     95 H         -0.098801   5.521222   0.569457 H        1 UNL1     0.0233
     96 H         -1.676405   6.010613   1.229496 H        1 UNL1     0.0233
     97 H         -5.792488   -0.651634   9.182942 H        1 UNL1     0.0280
     98 H         -4.751872   -2.045266   9.072948 H        1 UNL1     0.0280
     99 H         -4.619854   -0.948358   10.479751 H        1 UNL1     0.0280
     100 H         -4.494484   2.258054   10.20953 H        1 UNL1     0.2922
     101 H         2.646082   -2.397918   4.069728 H        1 UNL1     0.0236
     102 H         3.869258   -1.135857   4.490565 H        1 UNL1     0.0236
     103 H         3.631013   -1.652464   2.849878 H        1 UNL1     0.0236
     104 H         3.040844   -1.143124   0.737691 H        1 UNL1     0.2098
     105 H         0.447214   -0.835712   -1.453401 H        1 UNL1     0.0234
     106 H         -1.017066   -1.247041   -0.516497 H        1 UNL1     0.0234
     107 H         -0.0   0.0   0.0 H        1 UNL1     0.0234
     108 H         0.245198   -4.64952   1.969145 H        1 UNL1     0.2098
     109 H         -3.00102   -0.879492   1.80224 H        1 UNL1     0.0234
     110 H         -1.732761   -0.712589   0.546667 H        1 UNL1     0.0234
     111 H         -3.377259   -0.319567   0.186108 H        1 UNL1     0.0234
     112 H         -1.381104   -4.070859   -4.943313 H        1 UNL1     0.0342
     113 H         -2.126136   -4.766909   -3.460518 H        1 UNL1     0.0342
     114 H         -3.019343   -3.608425   -4.44949 H        1 UNL1     0.0342
     115 H         -2.131374   -5.80891   -1.06219 H        1 UNL1     0.0234
     116 H         -0.459968   -6.231192   -0.67636 H        1 UNL1     0.0234
     117 H         -1.653444   -5.812683   0.570281 H        1 UNL1     0.0234
     118 H         -4.955044   -1.984458   4.236356 H        1 UNL1     0.0309
     119 H         -5.182074   -0.717903   5.482292 H        1 UNL1     0.0309
     120 H         -4.207712   -0.439911   4.055584 H        1 UNL1     0.0309
     121 H         -2.725078   -6.485828   2.509618 H        1 UNL1     0.0524
     122 H         -3.943045   -5.351569   3.107004 H        1 UNL1     0.0524
     123 H         -4.204044   -6.188826   1.556319 H        1 UNL1     0.0524
@<TRIPOS>BOND
     1     1     2    1
     2     1    42    1
     3     2     3    2
     4     3     4    1
     5     4     5    2
     6     5     7    1
     7     6    75    1
     8     6    76    1
     9     6    77    1
    10     7     9   am
    11     9    10    1
    12    10    11    2
    13    10    43    1
    14    11    14    1
    15    11    15    1
    16    12    13   ar
    17    12    27   ar
    18    12    43    1
    19    13    14    1
    20    13    30   ar
    21    14    17    2
    22    15    16    1
    23    16    17    1
    24    16    18    1
    25    16    22    1
    26    18    19    1
    27    19    20    1
    28    20    21    1
    29    21    22    1
    30    23    24    1
    31    23    88    1
    32    23    89    1
    33    24    25    1
    34    24    26    1
    35    24    90    1
    36    25    91    1
    37    25    92    1
    38    25    93    1
    39    26    94    1
    40    26    95    1
    41    26    96    1
    42    27    28   ar
    43    28    29   ar
    44    29    30   ar
    45    29    31    1
    46    30    33    1
    47    31    32    1
    48    32    33    1
    49    32    35    1
    50    34    97    1
    51    34    98    1
    52    34    99    1
    53    35    61    1
    54    36    37    1
    55    36    60    1
    56    37    38    1
    57    38    39    1
    58    39    40    1
    59    40    41    1
    60    41    42    1
    61    45   100    1
    62    47   101    1
    63    47   102    1
    64    47   103    1
    65    48   104    1
    66    49   105    1
    67    49   106    1
    68    49   107    1
    69    50   108    1
    70    51    59    1
    71    52   109    1
    72    52   110    1
    73    52   111    1
    74    53    54    1
    75    54    55    2
    76    54    56    1
    77    56   112    1
    78    56   113    1
    79    56   114    1
    80    57   115    1
    81    57   116    1
    82    57   117    1
    83    58   118    1
    84    58   119    1
    85    58   120    1
    86    59   121    1
    87    59   122    1
    88    59   123    1
    89    60    61    2
    90     1    47    1
    91     1    62    1
    92     2    63    1
    93     3    64    1
    94     4    65    1
    95     5     6    1
    96     7     8    2
    97     9    78    1
    98    15    79    1
    99    18    80    1
   100    18    81    1
   101    19    82    1
   102    19    83    1
   103    20    23    1
   104    21    84    1
   105    21    85    1
   106    22    86    1
   107    22    87    1
   108    27    45    1
   109    28    34    1
   110    32    58    1
   111    33    46    2
   112    36    51    1
   113    36    66    1
   114    37    52    1
   115    37    67    1
   116    38    53    1
   117    38    68    1
   118    42    48    1
   119    42    72    1
   120    43    44    2
   121    60    73    1
   122    61    74    1
   123    39    69    1
   124    39    57    1
   125    40    70    1
   126    40    50    1
   127    41    71    1
   128    41    49    1
