@<TRIPOS>MOLECULE
*****
 123 128 0 0 0
SMALL
GASTEIGER

@<TRIPOS>ATOM
     1 C         5.167463   1.747638   0.492304 C.3        1 UNL1     0.0009
     2 C         6.604357   2.553804   -0.357677 C.2        1 UNL1     -0.0787
     3 C         7.886261   2.455633   -1.023358 C.2        1 UNL1     -0.0649
     4 C         8.763989   3.690882   -1.778414 C.2        1 UNL1     -0.0542
     5 C         9.784132   3.983696   -2.716842 C.2        1 UNL1     0.0115
     6 C         10.91227   3.358372   -3.582634 C.3        1 UNL1     -0.0348
     7 C         9.879788   5.467167   -3.322774 C.2        1 UNL1     0.2441
     8 O         10.7038   6.288516   -2.944732 O.2        1 UNL1     -0.2702
     9 N         9.129682   5.674721   -4.49342 N.am        1 UNL1     -0.2772
     10 C         7.847018   6.061522   -4.179602 C.2        1 UNL1     0.1049
     11 C         7.001032   5.090156   -3.888095 C.2        1 UNL1     0.0801
     12 C         6.548834   7.667877   -2.768335 C.ar        1 UNL1     0.0753
     13 C         5.789536   6.539932   -2.321327 C.ar        1 UNL1     0.0305
     14 C         5.906265   5.234456   -2.967204 C.2        1 UNL1     0.0924
     15 N         7.123414   3.761216   -4.047684 N.pl3        1 UNL1     -0.3170
     16 C         5.853422   3.162163   -3.73382 C.3        1 UNL1     0.1275
     17 N         5.217136   4.117142   -2.753576 N.2        1 UNL1     -0.2557
     18 C         5.000668   3.221876   -4.997524 C.3        1 UNL1     0.0016
     19 C         5.755495   2.538073   -6.126346 C.3        1 UNL1     0.0026
     20 N         6.025354   1.159774   -5.740996 N.3        1 UNL1     -0.3018
     21 C         6.7886   0.998764   -4.501681 C.3        1 UNL1     0.0026
     22 C         6.00991   1.689002   -3.380472 C.3        1 UNL1     0.0016
     23 C         6.46978   0.340576   -6.850971 C.3        1 UNL1     0.0012
     24 C         5.314353   0.091692   -7.833213 C.3        1 UNL1     -0.0339
     25 C         5.340172   1.095309   -8.997748 C.3        1 UNL1     -0.0615
     26 C         5.353512   -1.342833   -8.330592 C.3        1 UNL1     -0.0615
     27 C         6.344375   8.935403   -2.22825 C.ar        1 UNL1     0.1347
     28 C         5.385305   9.204765   -1.268209 C.ar        1 UNL1     0.0342
     29 C         4.683501   8.070272   -0.808254 C.ar        1 UNL1     0.1435
     30 C         4.902737   6.788396   -1.314168 C.ar        1 UNL1     0.0774
     31 O         3.642477   8.183709   0.045214 O.3        1 UNL1     -0.4436
     32 C         2.920577   6.951078   -0.097459 C.3        1 UNL1     0.3143
     33 C         3.933722   5.957985   -0.629921 C.2        1 UNL1     0.2504
     34 C         4.938695   10.570786   -0.827045 C.3        1 UNL1     -0.0327
     35 O         2.559778   6.513949   1.218593 O.2        1 UNL1     -0.4528
     36 C         -0.683606   4.58252   0.820937 C.3        1 UNL1     0.0854
     37 C         -0.989094   3.32233   -0.076906 C.3        1 UNL1     0.0236
     38 C         -1.589932   2.061103   0.710522 C.3        1 UNL1     0.1131
     39 C         -0.86435   1.529545   2.011771 C.3        1 UNL1     0.0200
     40 C         0.796812   1.383673   2.052981 C.3        1 UNL1     0.0661
     41 C         1.756105   0.6151   0.883937 C.3        1 UNL1     0.0091
     42 C         3.463793   0.977548   0.320166 C.3        1 UNL1     0.0661
     43 C         7.498901   7.460415   -3.889313 C.2        1 UNL1     0.2131
     44 O         7.898994   8.358685   -4.607486 O.2        1 UNL1     -0.2851
     45 O         7.156863   9.970529   -2.686309 O.3        1 UNL1     -0.5056
     46 O         3.949477   4.754399   -0.49959 O.2        1 UNL1     -0.2836
     47 C         5.563663   1.317554   1.93037 C.3        1 UNL1     -0.0566
     48 O         3.912086   -0.433672   0.401455 O.3        1 UNL1     -0.3909
     49 C         0.921944   0.383126   -0.356166 C.3        1 UNL1     -0.0577
     50 O         1.397219   2.601278   2.446269 O.3        1 UNL1     -0.3910
     51 O         -0.807807   4.392356   2.212282 O.3        1 UNL1     -0.3753
     52 C         0.055394   3.162087   -1.229432 C.3        1 UNL1     -0.0564
     53 O         -2.192682   1.022565   -0.189731 O.3        1 UNL1     -0.4608
     54 C         -2.427358   -0.284268   0.149454 C.2        1 UNL1     0.3042
     55 O         -1.858425   -1.283345   -0.288723 O.2        1 UNL1     -0.2512
     56 C         -3.467466   -0.450108   1.220615 C.3        1 UNL1     0.0332
     57 C         -1.58532   2.198213   3.273223 C.3        1 UNL1     -0.0567
     58 C         1.845487   7.19677   -1.181593 C.3        1 UNL1     0.0210
     59 C         -1.151743   5.56479   2.949148 C.3        1 UNL1     0.0372
     60 C         0.645522   5.211436   0.590621 C.2        1 UNL1     -0.0208
     61 C         1.558494   5.646178   1.460234 C.2        1 UNL1     0.0882
     62 H         4.691725   2.731869   0.579906 H        1 UNL1     0.0365
     63 H         6.338305   3.607616   -0.252003 H        1 UNL1     0.0576
     64 H         8.343743   1.488777   -1.244733 H        1 UNL1     0.0615
     65 H         8.277063   4.606245   -1.431287 H        1 UNL1     0.0622
     66 H         -1.428098   5.329302   0.510947 H        1 UNL1     0.0645
     67 H         -1.854552   3.632083   -0.688131 H        1 UNL1     0.0362
     68 H         -2.536937   2.498032   1.062371 H        1 UNL1     0.0741
     69 H         -1.196076   0.51844   2.206789 H        1 UNL1     0.0359
     70 H         0.908418   0.723003   2.933957 H        1 UNL1     0.0600
     71 H         1.799472   -0.406228   1.310511 H        1 UNL1     0.0348
     72 H         3.357956   1.465419   1.300011 H        1 UNL1     0.0602
     73 H         0.763506   5.409037   -0.445854 H        1 UNL1     0.0628
     74 H         1.540856   5.435131   2.529994 H        1 UNL1     0.1022
     75 H         10.956532   2.25303   -3.430013 H        1 UNL1     0.0279
     76 H         10.798706   3.441572   -4.661175 H        1 UNL1     0.0279
     77 H         11.917388   3.662766   -3.255856 H        1 UNL1     0.0279
     78 H         9.06754   4.804973   -5.018543 H        1 UNL1     0.1553
     79 H         7.788632   3.333319   -4.665197 H        1 UNL1     0.1484
     80 H         4.039283   2.731056   -4.803611 H        1 UNL1     0.0317
     81 H         4.774271   4.258769   -5.268165 H        1 UNL1     0.0317
     82 H         6.686272   3.069285   -6.374098 H        1 UNL1     0.0428
     83 H         5.130396   2.593656   -7.018092 H        1 UNL1     0.0428
     84 H         6.908705   -0.044322   -4.19288 H        1 UNL1     0.0428
     85 H         7.818768   1.366636   -4.605319 H        1 UNL1     0.0428
     86 H         6.526242   1.438214   -2.472456 H        1 UNL1     0.0317
     87 H         5.030367   1.211508   -3.255599 H        1 UNL1     0.0317
     88 H         7.265972   0.882409   -7.378029 H        1 UNL1     0.0429
     89 H         6.902178   -0.605404   -6.500362 H        1 UNL1     0.0429
     90 H         4.361487   0.198393   -7.301353 H        1 UNL1     0.0308
     91 H         6.290294   1.052592   -9.538622 H        1 UNL1     0.0233
     92 H         4.521734   0.899674   -9.694523 H        1 UNL1     0.0233
     93 H         5.212918   2.130811   -8.65955 H        1 UNL1     0.0233
     94 H         4.657246   -1.47198   -9.166279 H        1 UNL1     0.0233
     95 H         6.357853   -1.587173   -8.687745 H        1 UNL1     0.0233
     96 H         5.078969   -2.0469   -7.540096 H        1 UNL1     0.0233
     97 H         4.145312   10.520896   -0.087258 H        1 UNL1     0.0280
     98 H         5.751533   11.140508   -0.358038 H        1 UNL1     0.0280
     99 H         4.565164   11.135699   -1.696782 H        1 UNL1     0.0280
     100 H         6.689991   10.721343   -3.008692 H        1 UNL1     0.2922
     101 H         4.700744   0.8839   2.435317 H        1 UNL1     0.0236
     102 H         6.01457   2.122608   2.509639 H        1 UNL1     0.0236
     103 H         6.31976   0.514741   1.929021 H        1 UNL1     0.0236
     104 H         4.331556   -0.560049   1.274979 H        1 UNL1     0.2098
     105 H         0.709493   1.282199   -0.929178 H        1 UNL1     0.0234
     106 H         1.291212   -0.404735   -1.012553 H        1 UNL1     0.0234
     107 H         0.0   -0.0   0.0 H        1 UNL1     0.0234
     108 H         1.199424   3.259627   1.752568 H        1 UNL1     0.2098
     109 H         1.080191   3.048284   -0.84923 H        1 UNL1     0.0234
     110 H         -0.177174   2.335269   -1.909159 H        1 UNL1     0.0234
     111 H         0.076782   4.045125   -1.881913 H        1 UNL1     0.0234
     112 H         -3.600181   -1.51192   1.449281 H        1 UNL1     0.0342
     113 H         -3.224182   0.115543   2.118777 H        1 UNL1     0.0342
     114 H         -4.421975   -0.066946   0.83427 H        1 UNL1     0.0342
     115 H         -2.654992   1.950125   3.311192 H        1 UNL1     0.0234
     116 H         -1.148958   1.918034   4.234023 H        1 UNL1     0.0234
     117 H         -1.623708   3.300093   3.224978 H        1 UNL1     0.0234
     118 H         0.944486   7.683701   -0.769158 H        1 UNL1     0.0309
     119 H         2.215004   7.78498   -2.027565 H        1 UNL1     0.0309
     120 H         1.45676   6.265033   -1.606873 H        1 UNL1     0.0309
     121 H         -0.34737   6.287243   2.813494 H        1 UNL1     0.0524
     122 H         -2.0818   6.030942   2.583451 H        1 UNL1     0.0524
     123 H         -1.267519   5.326149   4.002591 H        1 UNL1     0.0524
@<TRIPOS>BOND
     1     1     2    1
     2     1    42    1
     3     2     3    2
     4     3     4    1
     5     4     5    2
     6     5     7    1
     7     6    75    1
     8     6    76    1
     9     6    77    1
    10     7     9   am
    11     9    10    1
    12    10    11    2
    13    10    43    1
    14    11    14    1
    15    11    15    1
    16    12    13   ar
    17    12    27   ar
    18    12    43    1
    19    13    14    1
    20    13    30   ar
    21    14    17    2
    22    15    16    1
    23    16    17    1
    24    16    18    1
    25    16    22    1
    26    18    19    1
    27    19    20    1
    28    20    21    1
    29    21    22    1
    30    23    24    1
    31    23    88    1
    32    23    89    1
    33    24    25    1
    34    24    26    1
    35    24    90    1
    36    25    91    1
    37    25    92    1
    38    25    93    1
    39    26    94    1
    40    26    95    1
    41    26    96    1
    42    27    28   ar
    43    28    29   ar
    44    29    30   ar
    45    29    31    1
    46    30    33    1
    47    31    32    1
    48    32    33    1
    49    32    35    1
    50    34    97    1
    51    34    98    1
    52    34    99    1
    53    35    61    1
    54    36    37    1
    55    36    60    1
    56    37    38    1
    57    38    39    1
    58    39    40    1
    59    40    41    1
    60    41    42    1
    61    45   100    1
    62    47   101    1
    63    47   102    1
    64    47   103    1
    65    48   104    1
    66    49   105    1
    67    49   106    1
    68    49   107    1
    69    50   108    1
    70    51    59    1
    71    52   109    1
    72    52   110    1
    73    52   111    1
    74    53    54    1
    75    54    55    2
    76    54    56    1
    77    56   112    1
    78    56   113    1
    79    56   114    1
    80    57   115    1
    81    57   116    1
    82    57   117    1
    83    58   118    1
    84    58   119    1
    85    58   120    1
    86    59   121    1
    87    59   122    1
    88    59   123    1
    89    60    61    2
    90     1    47    1
    91     1    62    1
    92     2    63    1
    93     3    64    1
    94     4    65    1
    95     5     6    1
    96     7     8    2
    97     9    78    1
    98    15    79    1
    99    18    80    1
   100    18    81    1
   101    19    82    1
   102    19    83    1
   103    20    23    1
   104    21    84    1
   105    21    85    1
   106    22    86    1
   107    22    87    1
   108    27    45    1
   109    28    34    1
   110    32    58    1
   111    33    46    2
   112    36    51    1
   113    36    66    1
   114    37    52    1
   115    37    67    1
   116    38    53    1
   117    38    68    1
   118    42    48    1
   119    42    72    1
   120    43    44    2
   121    60    73    1
   122    61    74    1
   123    39    69    1
   124    39    57    1
   125    40    70    1
   126    40    50    1
   127    41    71    1
   128    41    49    1
