@<TRIPOS>MOLECULE
*****
 123 128 0 0 0
SMALL
GASTEIGER

@<TRIPOS>ATOM
     1 C         4.365209   2.983559   1.433553 C.3        1 UNL1     0.0009
     2 C         5.677251   4.158759   0.855203 C.2        1 UNL1     -0.0787
     3 C         7.043558   4.416145   0.451463 C.2        1 UNL1     -0.0649
     4 C         7.696298   5.856768   -0.152599 C.2        1 UNL1     -0.0542
     5 C         8.765345   6.42996   -0.884492 C.2        1 UNL1     0.0115
     6 C         10.162508   6.143622   -1.500342 C.3        1 UNL1     -0.0348
     7 C         8.584781   7.901842   -1.499267 C.2        1 UNL1     0.2441
     8 O         9.076734   8.900089   -0.991321 O.2        1 UNL1     -0.2702
     9 N         8.046428   7.935955   -2.797405 N.am        1 UNL1     -0.2772
     10 C         6.671714   7.965861   -2.746521 C.2        1 UNL1     0.1049
     11 C         6.069277   6.800003   -2.597973 C.2        1 UNL1     0.0801
     12 C         4.752308   9.140393   -1.653959 C.ar        1 UNL1     0.0753
     13 C         4.242849   7.842139   -1.332094 C.ar        1 UNL1     0.0305
     14 C         4.818785   6.629521   -1.909074 C.2        1 UNL1     0.0924
     15 N         6.563069   5.553791   -2.696222 N.pl3        1 UNL1     -0.3170
     16 C         5.45798   4.635768   -2.617077 C.3        1 UNL1     0.1275
     17 N         4.417848   5.365833   -1.802919 N.2        1 UNL1     -0.2557
     18 C         4.879091   4.502776   -4.022389 C.3        1 UNL1     0.0016
     19 C         5.98908   4.069152   -4.966574 C.3        1 UNL1     0.0026
     20 N         6.530349   2.799934   -4.500588 N.3        1 UNL1     -0.3018
     21 C         7.055745   2.81241   -3.133777 C.3        1 UNL1     0.0026
     22 C         5.922969   3.246201   -2.201822 C.3        1 UNL1     0.0016
     23 C         7.378501   2.154047   -5.48248 C.3        1 UNL1     0.0012
     24 C         6.539791   1.636977   -6.66187 C.3        1 UNL1     -0.0339
     25 C         7.120142   0.334121   -7.236165 C.3        1 UNL1     -0.0615
     26 C         5.092419   1.463924   -6.235317 C.3        1 UNL1     -0.0615
     27 C         4.123679   10.296165   -1.196648 C.ar        1 UNL1     0.1347
     28 C         2.961314   10.280825   -0.4465 C.ar        1 UNL1     0.0342
     29 C         2.505454   8.99095   -0.100698 C.ar        1 UNL1     0.1435
     30 C         3.145232   7.824321   -0.52127 C.ar        1 UNL1     0.0774
     31 O         1.326841   8.80646   0.533211 O.3        1 UNL1     -0.4436
     32 C         0.993642   7.432046   0.286558 C.3        1 UNL1     0.3143
     33 C         2.313978   6.75227   -0.014823 C.2        1 UNL1     0.2504
     34 C         2.096949   11.470863   -0.135402 C.3        1 UNL1     -0.0327
     35 O         0.513249   6.882307   1.519547 O.2        1 UNL1     -0.4528
     36 C         -1.973178   4.181024   0.555785 C.3        1 UNL1     0.0854
     37 C         -1.759922   2.908174   -0.350801 C.3        1 UNL1     0.0236
     38 C         -2.150209   1.514037   0.338983 C.3        1 UNL1     0.1131
     39 C         -1.57552   1.157547   1.768989 C.3        1 UNL1     0.0200
     40 C         0.02588   1.449975   2.132913 C.3        1 UNL1     0.0661
     41 C         1.35916   0.989033   1.190838 C.3        1 UNL1     0.0091
     42 C         2.988193   1.799562   0.956964 C.3        1 UNL1     0.0661
     43 C         5.920966   9.217221   -2.56533 C.2        1 UNL1     0.2131
     44 O         6.202901   10.206899   -3.21632 O.2        1 UNL1     -0.2851
     45 O         4.709833   11.519045   -1.51669 O.3        1 UNL1     -0.5056
     46 O         2.61834   5.591727   0.14753 O.2        1 UNL1     -0.2836
     47 C         4.575492   2.635381   2.93173 C.3        1 UNL1     -0.0566
     48 O         3.765377   0.552995   1.159878 O.3        1 UNL1     -0.3909
     49 C         0.869545   0.578851   -0.180118 C.3        1 UNL1     -0.0577
     50 O         0.199841   2.771725   2.602422 O.3        1 UNL1     -0.3910
     51 O         -2.308824   3.929502   1.901709 O.3        1 UNL1     -0.3753
     52 C         -0.508224   3.056051   -1.276183 C.3        1 UNL1     -0.0564
     53 O         -2.275582   0.377413   -0.632971 O.3        1 UNL1     -0.4608
     54 C         -2.218244   -0.953528   -0.311663 C.2        1 UNL1     0.3042
     55 O         -1.270616   -1.721112   -0.474924 O.2        1 UNL1     -0.2512
     56 C         -3.460051   -1.46347   0.362568 C.3        1 UNL1     0.0332
     57 C         -2.675064   1.582027   2.850189 C.3        1 UNL1     -0.0567
     58 C         0.12128   7.415794   -0.990255 C.3        1 UNL1     0.0210
     59 C         -3.661557   4.223821   2.247186 C.3        1 UNL1     0.0372
     60 C         -0.836045   5.141185   0.569197 C.2        1 UNL1     -0.0208
     61 C         -0.25355   5.777087   1.586582 C.2        1 UNL1     0.0882
     62 H         3.641143   3.806636   1.402198 H        1 UNL1     0.0365
     63 H         5.129852   5.103324   0.88011 H        1 UNL1     0.0576
     64 H         7.77157   3.60848   0.347624 H        1 UNL1     0.0615
     65 H         6.929682   6.603836   0.070276 H        1 UNL1     0.0622
     66 H         -2.812843   4.714899   0.088897 H        1 UNL1     0.0645
     67 H         -2.541792   2.996443   -1.125041 H        1 UNL1     0.0362
     68 H         -3.227863   1.679082   0.490459 H        1 UNL1     0.0741
     69 H         -1.662581   0.09024   1.922892 H        1 UNL1     0.0359
     70 H         0.134495   0.819153   3.035868 H        1 UNL1     0.0600
     71 H         1.584971   0.003994   1.644341 H        1 UNL1     0.0348
     72 H         2.57194   2.21759   1.885027 H        1 UNL1     0.0602
     73 H         -0.576544   5.389185   -0.430004 H        1 UNL1     0.0628
     74 H         -0.421033   5.541492   2.638097 H        1 UNL1     0.1022
     75 H         10.816169   5.619065   -0.762371 H        1 UNL1     0.0279
     76 H         10.187434   5.471168   -2.35489 H        1 UNL1     0.0279
     77 H         10.740288   7.060386   -1.688529 H        1 UNL1     0.0279
     78 H         8.316055   7.093923   -3.301747 H        1 UNL1     0.1553
     79 H         7.422981   5.330594   -3.16277 H        1 UNL1     0.1484
     80 H         4.060706   3.772923   -4.00435 H        1 UNL1     0.0317
     81 H         4.446072   5.451003   -4.358559 H        1 UNL1     0.0317
     82 H         6.778324   4.831355   -5.044373 H        1 UNL1     0.0428
     83 H         5.554987   3.982176   -5.963092 H        1 UNL1     0.0428
     84 H         7.3825   1.829448   -2.780468 H        1 UNL1     0.0428
     85 H         7.953941   3.439305   -3.046809 H        1 UNL1     0.0428
     86 H         6.302069   3.115977   -1.205171 H        1 UNL1     0.0317
     87 H         5.097218   2.526224   -2.255351 H        1 UNL1     0.0317
     88 H         8.091446   2.898456   -5.860446 H        1 UNL1     0.0429
     89 H         7.96721   1.345345   -5.030599 H        1 UNL1     0.0429
     90 H         6.529872   2.394171   -7.454821 H        1 UNL1     0.0308
     91 H         8.177122   0.221329   -6.976988 H        1 UNL1     0.0233
     92 H         6.565837   -0.531676   -6.866367 H        1 UNL1     0.0233
     93 H         7.054883   0.294463   -8.330242 H        1 UNL1     0.0233
     94 H         4.539484   0.900985   -6.995053 H        1 UNL1     0.0233
     95 H         5.043688   0.90271   -5.297966 H        1 UNL1     0.0233
     96 H         4.599716   2.430018   -6.09434 H        1 UNL1     0.0233
     97 H         1.098971   11.369457   -0.551318 H        1 UNL1     0.0280
     98 H         1.959534   11.611487   0.94469 H        1 UNL1     0.0280
     99 H         2.555919   12.38045   -0.556227 H        1 UNL1     0.0280
     100 H         5.632515   11.569507   -1.338547 H        1 UNL1     0.2922
     101 H         3.844993   3.169146   3.539284 H        1 UNL1     0.0236
     102 H         5.595655   2.808218   3.272873 H        1 UNL1     0.0236
     103 H         4.386578   1.568926   3.139525 H        1 UNL1     0.0236
     104 H         3.951541   0.473803   2.115933 H        1 UNL1     0.2098
     105 H         0.589267   1.40886   -0.823812 H        1 UNL1     0.0234
     106 H         1.528671   -0.106494   -0.712829 H        1 UNL1     0.0234
     107 H         0.0   -0.0   0.0 H        1 UNL1     0.0234
     108 H         0.124234   3.365896   1.831051 H        1 UNL1     0.2098
     109 H         -0.596996   3.909549   -1.962749 H        1 UNL1     0.0234
     110 H         0.432232   3.12984   -0.719549 H        1 UNL1     0.0234
     111 H         -0.370807   2.173596   -1.915195 H        1 UNL1     0.0234
     112 H         -3.340923   -2.522667   0.610067 H        1 UNL1     0.0342
     113 H         -3.71401   -0.881658   1.247352 H        1 UNL1     0.0342
     114 H         -4.295742   -1.374927   -0.345207 H        1 UNL1     0.0342
     115 H         -3.660595   1.154319   2.62001 H        1 UNL1     0.0234
     116 H         -2.424331   1.296888   3.873848 H        1 UNL1     0.0234
     117 H         -2.90449   2.661501   2.843836 H        1 UNL1     0.0234
     118 H         -0.928319   7.151823   -0.771927 H        1 UNL1     0.0309
     119 H         0.145728   8.36241   -1.539366 H        1 UNL1     0.0309
     120 H         0.432917   6.643959   -1.702476 H        1 UNL1     0.0309
     121 H         -3.68955   4.440363   3.314745 H        1 UNL1     0.0524
     122 H         -4.044669   5.112259   1.718092 H        1 UNL1     0.0524
     123 H         -4.300648   3.37528   2.019954 H        1 UNL1     0.0524
@<TRIPOS>BOND
     1     1     2    1
     2     1    42    1
     3     2     3    2
     4     3     4    1
     5     4     5    2
     6     5     7    1
     7     6    75    1
     8     6    76    1
     9     6    77    1
    10     7     9   am
    11     9    10    1
    12    10    11    2
    13    10    43    1
    14    11    14    1
    15    11    15    1
    16    12    13   ar
    17    12    27   ar
    18    12    43    1
    19    13    14    1
    20    13    30   ar
    21    14    17    2
    22    15    16    1
    23    16    17    1
    24    16    18    1
    25    16    22    1
    26    18    19    1
    27    19    20    1
    28    20    21    1
    29    21    22    1
    30    23    24    1
    31    23    88    1
    32    23    89    1
    33    24    25    1
    34    24    26    1
    35    24    90    1
    36    25    91    1
    37    25    92    1
    38    25    93    1
    39    26    94    1
    40    26    95    1
    41    26    96    1
    42    27    28   ar
    43    28    29   ar
    44    29    30   ar
    45    29    31    1
    46    30    33    1
    47    31    32    1
    48    32    33    1
    49    32    35    1
    50    34    97    1
    51    34    98    1
    52    34    99    1
    53    35    61    1
    54    36    37    1
    55    36    60    1
    56    37    38    1
    57    38    39    1
    58    39    40    1
    59    40    41    1
    60    41    42    1
    61    45   100    1
    62    47   101    1
    63    47   102    1
    64    47   103    1
    65    48   104    1
    66    49   105    1
    67    49   106    1
    68    49   107    1
    69    50   108    1
    70    51    59    1
    71    52   109    1
    72    52   110    1
    73    52   111    1
    74    53    54    1
    75    54    55    2
    76    54    56    1
    77    56   112    1
    78    56   113    1
    79    56   114    1
    80    57   115    1
    81    57   116    1
    82    57   117    1
    83    58   118    1
    84    58   119    1
    85    58   120    1
    86    59   121    1
    87    59   122    1
    88    59   123    1
    89    60    61    2
    90     1    47    1
    91     1    62    1
    92     2    63    1
    93     3    64    1
    94     4    65    1
    95     5     6    1
    96     7     8    2
    97     9    78    1
    98    15    79    1
    99    18    80    1
   100    18    81    1
   101    19    82    1
   102    19    83    1
   103    20    23    1
   104    21    84    1
   105    21    85    1
   106    22    86    1
   107    22    87    1
   108    27    45    1
   109    28    34    1
   110    32    58    1
   111    33    46    2
   112    36    51    1
   113    36    66    1
   114    37    52    1
   115    37    67    1
   116    38    53    1
   117    38    68    1
   118    42    48    1
   119    42    72    1
   120    43    44    2
   121    60    73    1
   122    61    74    1
   123    39    69    1
   124    39    57    1
   125    40    70    1
   126    40    50    1
   127    41    71    1
   128    41    49    1
