@<TRIPOS>MOLECULE
*****
 123 128 0 0 0
SMALL
GASTEIGER

@<TRIPOS>ATOM
     1 C         -5.263265   0.839003   0.343813 C.3        1 UNL1     0.0009
     2 C         -6.505379   2.090268   0.916983 C.2        1 UNL1     -0.0787
     3 C         -7.556361   2.490308   1.828823 C.2        1 UNL1     -0.0649
     4 C         -8.327985   3.993736   1.932054 C.2        1 UNL1     -0.0542
     5 C         -9.095876   4.850305   2.758922 C.2        1 UNL1     0.0115
     6 C         -9.895287   4.928379   4.088647 C.3        1 UNL1     -0.0348
     7 C         -9.178792   6.411717   2.395454 C.2        1 UNL1     0.2441
     8 O         -10.149564   6.917055   1.848864 O.2        1 UNL1     -0.2702
     9 N         -8.17691   7.206367   2.979333 N.am        1 UNL1     -0.2772
     10 C         -7.06319   7.244752   2.172192 C.2        1 UNL1     0.1049
     11 C         -6.228853   6.226976   2.282803 C.2        1 UNL1     0.0801
     12 C         -6.338028   7.632294   -0.190282 C.ar        1 UNL1     0.0753
     13 C         -5.611541   6.403478   -0.086186 C.ar        1 UNL1     0.0305
     14 C         -5.428037   5.729454   1.197196 C.2        1 UNL1     0.0924
     15 N         -6.173686   5.251617   3.205928 N.pl3        1 UNL1     -0.3170
     16 C         -4.974459   4.491949   2.971382 C.3        1 UNL1     0.1275
     17 N         -4.709949   4.650007   1.49396 N.2        1 UNL1     -0.2557
     18 C         -3.835298   5.213477   3.685113 C.3        1 UNL1     0.0016
     19 C         -4.202359   5.370126   5.152191 C.3        1 UNL1     0.0026
     20 N         -4.424386   4.048588   5.722514 N.3        1 UNL1     -0.3018
     21 C         -5.461194   3.252683   5.062261 C.3        1 UNL1     0.0026
     22 C         -5.069873   3.103953   3.590989 C.3        1 UNL1     0.0016
     23 C         -4.484532   4.062138   7.170562 C.3        1 UNL1     0.0012
     24 C         -5.939659   3.943077   7.65034 C.3        1 UNL1     -0.0339
     25 C         -6.527304   2.559746   7.326106 C.3        1 UNL1     -0.0615
     26 C         -6.025608   4.252991   9.134707 C.3        1 UNL1     -0.0615
     27 C         -6.406204   8.330736   -1.393466 C.ar        1 UNL1     0.1347
     28 C         -5.758293   7.921602   -2.545365 C.ar        1 UNL1     0.0342
     29 C         -5.089753   6.684102   -2.432168 C.ar        1 UNL1     0.1435
     30 C         -5.043158   5.955232   -1.243136 C.ar        1 UNL1     0.0774
     31 O         -4.320172   6.20465   -3.433605 O.3        1 UNL1     -0.4436
     32 C         -3.467402   5.236537   -2.803992 C.3        1 UNL1     0.3143
     33 C         -4.205676   4.814464   -1.549792 C.2        1 UNL1     0.2504
     34 C         -5.578005   8.73989   -3.793564 C.3        1 UNL1     -0.0327
     35 O         -3.416202   4.091076   -3.663382 O.2        1 UNL1     -0.4528
     36 C         -0.004922   2.522813   -3.104979 C.3        1 UNL1     0.0854
     37 C         0.644806   2.001493   -1.765725 C.3        1 UNL1     0.0236
     38 C         1.144528   0.478186   -1.805201 C.3        1 UNL1     0.1131
     39 C         0.164694   -0.656741   -2.30932 C.3        1 UNL1     0.0200
     40 C         -1.428134   -0.678957   -1.814504 C.3        1 UNL1     0.0661
     41 C         -1.972964   -0.552857   -0.212983 C.3        1 UNL1     0.0091
     42 C         -3.505091   0.191968   0.467624 C.3        1 UNL1     0.0661
     43 C         -6.941976   8.18451   1.047685 C.2        1 UNL1     0.2131
     44 O         -7.230611   9.358913   1.189829 O.2        1 UNL1     -0.2851
     45 O         -7.171771   9.494596   -1.421272 O.3        1 UNL1     -0.5056
     46 O         -4.135106   3.764433   -0.951203 O.2        1 UNL1     -0.2836
     47 C         -5.971795   -0.317021   -0.412214 C.3        1 UNL1     -0.0566
     48 O         -3.81706   -0.966582   1.339148 O.3        1 UNL1     -0.3909
     49 C         -0.828845   -0.080092   0.655913 C.3        1 UNL1     -0.0577
     50 O         -2.227177   0.122497   -2.661218 O.3        1 UNL1     -0.3910
     51 O         -0.224998   1.550805   -4.102074 O.3        1 UNL1     -0.3753
     52 C         -0.046452   2.617136   -0.505529 C.3        1 UNL1     -0.0564
     53 O         2.058633   0.116428   -0.671238 O.3        1 UNL1     -0.4608
     54 C         2.792692   1.003179   0.072239 C.2        1 UNL1     0.3042
     55 O         3.199006   0.855247   1.224135 O.2        1 UNL1     -0.2512
     56 C         3.159336   2.254502   -0.673734 C.3        1 UNL1     0.0332
     57 C         0.466557   -0.900321   -3.861004 C.3        1 UNL1     -0.0567
     58 C         -2.179211   5.988326   -2.395451 C.3        1 UNL1     0.0210
     59 C         -1.273196   1.859876   -5.019473 C.3        1 UNL1     0.0372
     60 C         -1.285465   3.262378   -2.936411 C.2        1 UNL1     -0.0208
     61 C         -2.43002   3.175032   -3.615461 C.2        1 UNL1     0.0882
     62 H         -4.926095   1.551344   -0.418813 H        1 UNL1     0.0365
     63 H         -6.381304   2.863632   0.156074 H        1 UNL1     0.0576
     64 H         -7.843256   1.868506   2.6798 H        1 UNL1     0.0615
     65 H         -8.040069   4.49857   1.005917 H        1 UNL1     0.0622
     66 H         0.716488   3.254476   -3.495213 H        1 UNL1     0.0645
     67 H         1.603371   2.545386   -1.703333 H        1 UNL1     0.0362
     68 H         1.920859   0.559325   -2.581248 H        1 UNL1     0.0741
     69 H         0.533522   -1.613486   -1.964338 H        1 UNL1     0.0359
     70 H         -1.696803   -1.718509   -2.08322 H        1 UNL1     0.0600
     71 H         -2.023284   -1.625426   0.059082 H        1 UNL1     0.0348
     72 H         -3.704042   0.010018   -0.598503 H        1 UNL1     0.0602
     73 H         -1.151536   4.033643   -2.21915 H        1 UNL1     0.0628
     74 H         -2.667637   2.380766   -4.323922 H        1 UNL1     0.1022
     75 H         -9.581054   4.112565   4.783442 H        1 UNL1     0.0279
     76 H         -9.746401   5.820691   4.692535 H        1 UNL1     0.0279
     77 H         -10.963349   4.701369   3.956701 H        1 UNL1     0.0279
     78 H         -7.895757   6.802336   3.870282 H        1 UNL1     0.1553
     79 H         -6.611651   5.311907   4.106753 H        1 UNL1     0.1484
     80 H         -2.912533   4.633548   3.562834 H        1 UNL1     0.0317
     81 H         -3.650752   6.194785   3.23497 H        1 UNL1     0.0317
     82 H         -5.085843   6.011882   5.284546 H        1 UNL1     0.0428
     83 H         -3.377392   5.888491   5.641862 H        1 UNL1     0.0428
     84 H         -5.552788   2.236496   5.458222 H        1 UNL1     0.0428
     85 H         -6.461135   3.685457   5.204177 H        1 UNL1     0.0428
     86 H         -5.775141   2.410079   3.17251 H        1 UNL1     0.0317
     87 H         -4.113197   2.573652   3.509464 H        1 UNL1     0.0317
     88 H         -3.921525   3.196722   7.543888 H        1 UNL1     0.0429
     89 H         -4.004359   4.959669   7.581229 H        1 UNL1     0.0429
     90 H         -6.546655   4.706468   7.149338 H        1 UNL1     0.0308
     91 H         -6.708065   1.980997   8.236863 H        1 UNL1     0.0233
     92 H         -7.463676   2.658062   6.771895 H        1 UNL1     0.0233
     93 H         -5.860106   1.960001   6.695244 H        1 UNL1     0.0233
     94 H         -6.360942   5.284684   9.286351 H        1 UNL1     0.0233
     95 H         -6.750654   3.589006   9.61366 H        1 UNL1     0.0233
     96 H         -5.055941   4.129201   9.625003 H        1 UNL1     0.0233
     97 H         -4.622815   9.256262   -3.807825 H        1 UNL1     0.0280
     98 H         -5.598896   8.121482   -4.700422 H        1 UNL1     0.0280
     99 H         -6.379433   9.49385   -3.859531 H        1 UNL1     0.0280
     100 H         -6.722753   10.265814   -1.122561 H        1 UNL1     0.2922
     101 H         -5.409439   -1.241245   -0.280983 H        1 UNL1     0.0236
     102 H         -6.153015   -0.094259   -1.463175 H        1 UNL1     0.0236
     103 H         -6.969189   -0.534671   0.004952 H        1 UNL1     0.0236
     104 H         -3.630771   -0.700876   2.260922 H        1 UNL1     0.2098
     105 H         -0.985512   0.893048   1.11446 H        1 UNL1     0.0234
     106 H         -0.496558   -0.800681   1.403083 H        1 UNL1     0.0234
     107 H         0.0   0.0   0.0 H        1 UNL1     0.0234
     108 H         -2.554064   -0.451639   -3.380439 H        1 UNL1     0.2098
     109 H         0.676482   3.077873   0.182075 H        1 UNL1     0.0234
     110 H         -0.828554   3.342343   -0.754794 H        1 UNL1     0.0234
     111 H         -0.570461   1.852209   0.0829 H        1 UNL1     0.0234
     112 H         2.879913   3.133839   -0.085486 H        1 UNL1     0.0342
     113 H         4.215783   2.27989   -0.936638 H        1 UNL1     0.0342
     114 H         2.582957   2.277821   -1.608832 H        1 UNL1     0.0342
     115 H         1.52819   -1.118641   -4.041172 H        1 UNL1     0.0234
     116 H         -0.115215   -1.710784   -4.304558 H        1 UNL1     0.0234
     117 H         0.325605   0.000181   -4.483233 H        1 UNL1     0.0234
     118 H         -2.182692   6.266504   -1.326989 H        1 UNL1     0.0309
     119 H         -1.265797   5.427036   -2.616431 H        1 UNL1     0.0309
     120 H         -2.07448   6.951453   -2.906845 H        1 UNL1     0.0309
     121 H         -0.926807   1.593638   -6.017716 H        1 UNL1     0.0524
     122 H         -2.188816   1.27866   -4.81981 H        1 UNL1     0.0524
     123 H         -1.511177   2.918891   -4.975341 H        1 UNL1     0.0524
@<TRIPOS>BOND
     1     1     2    1
     2     1    42    1
     3     2     3    2
     4     3     4    1
     5     4     5    2
     6     5     7    1
     7     6    75    1
     8     6    76    1
     9     6    77    1
    10     7     9   am
    11     9    10    1
    12    10    11    2
    13    10    43    1
    14    11    14    1
    15    11    15    1
    16    12    13   ar
    17    12    27   ar
    18    12    43    1
    19    13    14    1
    20    13    30   ar
    21    14    17    2
    22    15    16    1
    23    16    17    1
    24    16    18    1
    25    16    22    1
    26    18    19    1
    27    19    20    1
    28    20    21    1
    29    21    22    1
    30    23    24    1
    31    23    88    1
    32    23    89    1
    33    24    25    1
    34    24    26    1
    35    24    90    1
    36    25    91    1
    37    25    92    1
    38    25    93    1
    39    26    94    1
    40    26    95    1
    41    26    96    1
    42    27    28   ar
    43    28    29   ar
    44    29    30   ar
    45    29    31    1
    46    30    33    1
    47    31    32    1
    48    32    33    1
    49    32    35    1
    50    34    97    1
    51    34    98    1
    52    34    99    1
    53    35    61    1
    54    36    37    1
    55    36    60    1
    56    37    38    1
    57    38    39    1
    58    39    40    1
    59    40    41    1
    60    41    42    1
    61    45   100    1
    62    47   101    1
    63    47   102    1
    64    47   103    1
    65    48   104    1
    66    49   105    1
    67    49   106    1
    68    49   107    1
    69    50   108    1
    70    51    59    1
    71    52   109    1
    72    52   110    1
    73    52   111    1
    74    53    54    1
    75    54    55    2
    76    54    56    1
    77    56   112    1
    78    56   113    1
    79    56   114    1
    80    57   115    1
    81    57   116    1
    82    57   117    1
    83    58   118    1
    84    58   119    1
    85    58   120    1
    86    59   121    1
    87    59   122    1
    88    59   123    1
    89    60    61    2
    90     1    47    1
    91     1    62    1
    92     2    63    1
    93     3    64    1
    94     4    65    1
    95     5     6    1
    96     7     8    2
    97     9    78    1
    98    15    79    1
    99    18    80    1
   100    18    81    1
   101    19    82    1
   102    19    83    1
   103    20    23    1
   104    21    84    1
   105    21    85    1
   106    22    86    1
   107    22    87    1
   108    27    45    1
   109    28    34    1
   110    32    58    1
   111    33    46    2
   112    36    51    1
   113    36    66    1
   114    37    52    1
   115    37    67    1
   116    38    53    1
   117    38    68    1
   118    42    48    1
   119    42    72    1
   120    43    44    2
   121    60    73    1
   122    61    74    1
   123    39    69    1
   124    39    57    1
   125    40    70    1
   126    40    50    1
   127    41    71    1
   128    41    49    1
