@<TRIPOS>MOLECULE
*****
 123 128 0 0 0
SMALL
GASTEIGER

@<TRIPOS>ATOM
     1 C         5.082815   1.793871   0.979168 C.3        1 UNL1     0.0009
     2 C         6.890034   1.382781   0.934438 C.2        1 UNL1     -0.0787
     3 C         8.106852   0.993471   1.615495 C.2        1 UNL1     -0.0649
     4 C         9.608031   0.616019   0.929674 C.2        1 UNL1     -0.0542
     5 C         10.847348   -0.038511   1.136461 C.2        1 UNL1     0.0115
     6 C         11.742571   -0.726151   2.203723 C.3        1 UNL1     -0.0348
     7 C         11.756093   -0.401396   -0.13613 C.2        1 UNL1     0.2441
     8 O         12.740037   0.250032   -0.458653 O.2        1 UNL1     -0.2702
     9 N         11.50182   -1.663398   -0.700796 N.am        1 UNL1     -0.2772
     10 C         10.50365   -1.57526   -1.643775 C.2        1 UNL1     0.1049
     11 C         9.265491   -1.603692   -1.185106 C.2        1 UNL1     0.0801
     12 C         9.773888   -0.260478   -3.642808 C.ar        1 UNL1     0.0753
     13 C         8.499671   -0.141701   -3.001817 C.ar        1 UNL1     0.0305
     14 C         8.165907   -0.921762   -1.812213 C.2        1 UNL1     0.0924
     15 N         8.804508   -1.915009   0.038456 N.pl3        1 UNL1     -0.3170
     16 C         7.368055   -1.959529   -0.031381 C.3        1 UNL1     0.1275
     17 N         7.014737   -1.012759   -1.152325 N.2        1 UNL1     -0.2557
     18 C         6.981944   -3.353429   -0.516832 C.3        1 UNL1     0.0016
     19 C         7.597171   -4.381966   0.418687 C.3        1 UNL1     0.0026
     20 N         7.103724   -4.141596   1.767672 N.3        1 UNL1     -0.3018
     21 C         7.373291   -2.803972   2.299146 C.3        1 UNL1     0.0026
     22 C         6.742505   -1.786922   1.346458 C.3        1 UNL1     0.0016
     23 C         7.387327   -5.235521   2.675163 C.3        1 UNL1     0.0012
     24 C         6.531753   -6.46273   2.323442 C.3        1 UNL1     -0.0339
     25 C         6.1406   -7.254914   3.581815 C.3        1 UNL1     -0.0615
     26 C         5.30951   -6.035262   1.529608 C.3        1 UNL1     -0.0615
     27 C         10.041801   0.393571   -4.843042 C.ar        1 UNL1     0.1347
     28 C         9.105372   1.159008   -5.514798 C.ar        1 UNL1     0.0342
     29 C         7.874069   1.301469   -4.840437 C.ar        1 UNL1     0.1435
     30 C         7.60372   0.681627   -3.619812 C.ar        1 UNL1     0.0774
     31 O         6.823176   1.92515   -5.41633 O.3        1 UNL1     -0.4436
     32 C         5.680392   1.466514   -4.67838 C.3        1 UNL1     0.3143
     33 C         6.226628   1.026983   -3.335007 C.2        1 UNL1     0.2504
     34 C         9.235917   1.680072   -6.918917 C.3        1 UNL1     -0.0327
     35 O         4.844509   2.604976   -4.436601 O.2        1 UNL1     -0.4528
     36 C         1.29238   1.27517   -4.288004 C.3        1 UNL1     0.0854
     37 C         0.681337   0.168921   -3.344415 C.3        1 UNL1     0.0236
     38 C         -0.603148   0.632168   -2.503436 C.3        1 UNL1     0.1131
     39 C         -0.550022   1.970982   -1.662589 C.3        1 UNL1     0.0200
     40 C         0.792731   2.338944   -0.743865 C.3        1 UNL1     0.0661
     41 C         1.554099   1.302674   0.362514 C.3        1 UNL1     0.0091
     42 C         3.319153   1.164489   0.843024 C.3        1 UNL1     0.0661
     43 C         10.770987   -1.175107   -3.033294 C.2        1 UNL1     0.2131
     44 O         11.701306   -1.663208   -3.648926 O.2        1 UNL1     -0.2851
     45 O         11.321944   0.262497   -5.377355 O.3        1 UNL1     -0.5056
     46 O         5.65928   0.991208   -2.26604 O.2        1 UNL1     -0.2836
     47 C         4.866559   3.210052   1.577205 C.3        1 UNL1     -0.0566
     48 O         3.039069   1.143365   2.299122 O.3        1 UNL1     -0.3909
     49 C         1.045109   -0.104531   0.142972 C.3        1 UNL1     -0.0577
     50 O         1.762307   3.012681   -1.520862 O.3        1 UNL1     -0.3910
     51 O         0.752387   2.570011   -4.14935 O.3        1 UNL1     -0.3753
     52 C         1.788503   -0.749982   -2.732246 C.3        1 UNL1     -0.0564
     53 O         -1.366633   -0.508273   -1.896138 O.3        1 UNL1     -0.4608
     54 C         -2.596192   -0.41326   -1.298571 C.2        1 UNL1     0.3042
     55 O         -2.842196   -0.406596   -0.093052 O.2        1 UNL1     -0.2512
     56 C         -3.72707   -0.245224   -2.273041 C.3        1 UNL1     0.0332
     57 C         -1.176312   3.132937   -2.565804 C.3        1 UNL1     -0.0567
     58 C         5.144197   0.225402   -5.429157 C.3        1 UNL1     0.0210
     59 C         -0.079791   2.991179   -5.229148 C.3        1 UNL1     0.0372
     60 C         2.772118   1.417066   -4.214502 C.2        1 UNL1     -0.0208
     61 C         3.533284   2.509949   -4.143951 C.2        1 UNL1     0.0882
     62 H         5.102787   1.914124   -0.110719 H        1 UNL1     0.0365
     63 H         7.116372   1.574023   -0.116594 H        1 UNL1     0.0576
     64 H         8.112581   0.74227   2.678497 H        1 UNL1     0.0615
     65 H         9.522301   0.97572   -0.099281 H        1 UNL1     0.0622
     66 H         1.073754   0.921591   -5.305468 H        1 UNL1     0.0645
     67 H         0.235436   -0.561639   -4.041563 H        1 UNL1     0.0362
     68 H         -1.301148   0.834343   -3.330143 H        1 UNL1     0.0741
     69 H         -1.342759   1.951445   -0.926658 H        1 UNL1     0.0359
     70 H         0.367274   3.124503   -0.090456 H        1 UNL1     0.0600
     71 H         1.019438   1.584505   1.290774 H        1 UNL1     0.0348
     72 H         3.206424   2.157894   0.385034 H        1 UNL1     0.0602
     73 H         3.221623   0.465496   -4.354892 H        1 UNL1     0.0628
     74 H         3.155094   3.512922   -3.943314 H        1 UNL1     0.1022
     75 H         11.805291   -0.099182   3.125683 H        1 UNL1     0.0279
     76 H         11.389729   -1.678968   2.591938 H        1 UNL1     0.0279
     77 H         12.799491   -0.776706   1.903612 H        1 UNL1     0.0279
     78 H         11.183564   -2.304213   0.023184 H        1 UNL1     0.1553
     79 H         9.332132   -2.432185   0.71748 H        1 UNL1     0.1484
     80 H         5.888442   -3.434545   -0.537814 H        1 UNL1     0.0317
     81 H         7.328377   -3.520516   -1.542365 H        1 UNL1     0.0317
     82 H         8.696355   -4.353839   0.388416 H        1 UNL1     0.0428
     83 H         7.310884   -5.368633   0.053201 H        1 UNL1     0.0428
     84 H         6.923686   -2.623065   3.28044 H        1 UNL1     0.0428
     85 H         8.447032   -2.637926   2.462933 H        1 UNL1     0.0428
     86 H         6.842864   -0.834097   1.8323 H        1 UNL1     0.0317
     87 H         5.656787   -1.936852   1.303616 H        1 UNL1     0.0317
     88 H         8.446049   -5.504538   2.565479 H        1 UNL1     0.0429
     89 H         7.238382   -4.935367   3.720389 H        1 UNL1     0.0429
     90 H         7.104404   -7.12162   1.660005 H        1 UNL1     0.0308
     91 H         5.782731   -6.591039   4.37447 H        1 UNL1     0.0233
     92 H         5.364616   -7.988463   3.35081 H        1 UNL1     0.0233
     93 H         6.982846   -7.821306   3.997334 H        1 UNL1     0.0233
     94 H         4.523851   -6.794515   1.60778 H        1 UNL1     0.0233
     95 H         4.913298   -5.097732   1.92963 H        1 UNL1     0.0233
     96 H         5.549805   -5.894246   0.472092 H        1 UNL1     0.0233
     97 H         8.433255   1.328468   -7.560275 H        1 UNL1     0.0280
     98 H         9.194312   2.776391   -6.959027 H        1 UNL1     0.0280
     99 H         10.19394   1.345233   -7.349233 H        1 UNL1     0.0280
     100 H         12.019516   0.424215   -4.766729 H        1 UNL1     0.2922
     101 H         4.629194   3.913673   0.779564 H        1 UNL1     0.0236
     102 H         5.702863   3.550094   2.187083 H        1 UNL1     0.0236
     103 H         3.994329   3.246262   2.251072 H        1 UNL1     0.0236
     104 H         3.8923   1.242644   2.765074 H        1 UNL1     0.2098
     105 H         1.453402   -0.597851   -0.735517 H        1 UNL1     0.0234
     106 H         1.121496   -0.75724   1.01249 H        1 UNL1     0.0234
     107 H         -0.0   0.0   0.0 H        1 UNL1     0.0234
     108 H         2.598356   3.000058   -1.016252 H        1 UNL1     0.2098
     109 H         1.683784   -1.796432   -3.051133 H        1 UNL1     0.0234
     110 H         2.804422   -0.401391   -2.947039 H        1 UNL1     0.0234
     111 H         1.739313   -0.767177   -1.635327 H        1 UNL1     0.0234
     112 H         -4.674023   -0.154911   -1.732237 H        1 UNL1     0.0342
     113 H         -3.573309   0.604673   -2.936272 H        1 UNL1     0.0342
     114 H         -3.780001   -1.14851   -2.89629 H        1 UNL1     0.0342
     115 H         -1.703765   3.882144   -1.959445 H        1 UNL1     0.0234
     116 H         -0.443973   3.662665   -3.178272 H        1 UNL1     0.0234
     117 H         -1.98748   2.78592   -3.228772 H        1 UNL1     0.0234
     118 H         4.17357   0.423127   -5.916798 H        1 UNL1     0.0309
     119 H         5.846464   -0.163005   -6.173579 H        1 UNL1     0.0309
     120 H         4.923078   -0.610071   -4.755959 H        1 UNL1     0.0309
     121 H         -0.054008   4.080097   -5.259945 H        1 UNL1     0.0524
     122 H         0.281221   2.622871   -6.203857 H        1 UNL1     0.0524
     123 H         -1.097915   2.64452   -5.076357 H        1 UNL1     0.0524
@<TRIPOS>BOND
     1     1     2    1
     2     1    42    1
     3     2     3    2
     4     3     4    1
     5     4     5    2
     6     5     7    1
     7     6    75    1
     8     6    76    1
     9     6    77    1
    10     7     9   am
    11     9    10    1
    12    10    11    2
    13    10    43    1
    14    11    14    1
    15    11    15    1
    16    12    13   ar
    17    12    27   ar
    18    12    43    1
    19    13    14    1
    20    13    30   ar
    21    14    17    2
    22    15    16    1
    23    16    17    1
    24    16    18    1
    25    16    22    1
    26    18    19    1
    27    19    20    1
    28    20    21    1
    29    21    22    1
    30    23    24    1
    31    23    88    1
    32    23    89    1
    33    24    25    1
    34    24    26    1
    35    24    90    1
    36    25    91    1
    37    25    92    1
    38    25    93    1
    39    26    94    1
    40    26    95    1
    41    26    96    1
    42    27    28   ar
    43    28    29   ar
    44    29    30   ar
    45    29    31    1
    46    30    33    1
    47    31    32    1
    48    32    33    1
    49    32    35    1
    50    34    97    1
    51    34    98    1
    52    34    99    1
    53    35    61    1
    54    36    37    1
    55    36    60    1
    56    37    38    1
    57    38    39    1
    58    39    40    1
    59    40    41    1
    60    41    42    1
    61    45   100    1
    62    47   101    1
    63    47   102    1
    64    47   103    1
    65    48   104    1
    66    49   105    1
    67    49   106    1
    68    49   107    1
    69    50   108    1
    70    51    59    1
    71    52   109    1
    72    52   110    1
    73    52   111    1
    74    53    54    1
    75    54    55    2
    76    54    56    1
    77    56   112    1
    78    56   113    1
    79    56   114    1
    80    57   115    1
    81    57   116    1
    82    57   117    1
    83    58   118    1
    84    58   119    1
    85    58   120    1
    86    59   121    1
    87    59   122    1
    88    59   123    1
    89    60    61    2
    90     1    47    1
    91     1    62    1
    92     2    63    1
    93     3    64    1
    94     4    65    1
    95     5     6    1
    96     7     8    2
    97     9    78    1
    98    15    79    1
    99    18    80    1
   100    18    81    1
   101    19    82    1
   102    19    83    1
   103    20    23    1
   104    21    84    1
   105    21    85    1
   106    22    86    1
   107    22    87    1
   108    27    45    1
   109    28    34    1
   110    32    58    1
   111    33    46    2
   112    36    51    1
   113    36    66    1
   114    37    52    1
   115    37    67    1
   116    38    53    1
   117    38    68    1
   118    42    48    1
   119    42    72    1
   120    43    44    2
   121    60    73    1
   122    61    74    1
   123    39    69    1
   124    39    57    1
   125    40    70    1
   126    40    50    1
   127    41    71    1
   128    41    49    1
