@<TRIPOS>MOLECULE
*****
 123 128 0 0 0
SMALL
GASTEIGER

@<TRIPOS>ATOM
     1 C         4.968358   0.375144   -1.948065 C.3        1 UNL1     0.0009
     2 C         6.186203   -0.514397   -3.026308 C.2        1 UNL1     -0.0787
     3 C         7.426285   -1.245032   -3.182559 C.2        1 UNL1     -0.0649
     4 C         8.022334   -1.997018   -4.577407 C.2        1 UNL1     -0.0542
     5 C         8.919457   -2.972999   -5.077116 C.2        1 UNL1     0.0115
     6 C         10.093432   -3.914883   -4.692459 C.3        1 UNL1     -0.0348
     7 C         8.710683   -3.528964   -6.568527 C.2        1 UNL1     0.2441
     8 O         9.391116   -3.162253   -7.516714 O.2        1 UNL1     -0.2702
     9 N         7.872529   -4.653306   -6.66602 N.am        1 UNL1     -0.2772
     10 C         6.560025   -4.263433   -6.802602 C.2        1 UNL1     0.1049
     11 C         5.92186   -3.96617   -5.685193 C.2        1 UNL1     0.0801
     12 C         5.070616   -2.733378   -8.105647 C.ar        1 UNL1     0.0753
     13 C         4.554515   -2.290786   -6.846139 C.ar        1 UNL1     0.0305
     14 C         4.871075   -2.988276   -5.601812 C.2        1 UNL1     0.0924
     15 N         6.274803   -4.179392   -4.405937 N.pl3        1 UNL1     -0.3170
     16 C         5.153899   -3.825662   -3.576056 C.3        1 UNL1     0.1275
     17 N         4.409186   -2.781679   -4.371811 N.2        1 UNL1     -0.2557
     18 C         4.236745   -5.043206   -3.511915 C.3        1 UNL1     0.0016
     19 C         5.040448   -6.231501   -3.008321 C.3        1 UNL1     0.0026
     20 N         5.576932   -5.909778   -1.693138 N.3        1 UNL1     -0.3018
     21 C         6.42328   -4.715857   -1.64197 C.3        1 UNL1     0.0026
     22 C         5.594562   -3.533764   -2.147714 C.3        1 UNL1     0.0016
     23 C         6.101508   -7.068977   -0.999077 C.3        1 UNL1     0.0012
     24 C         4.958639   -8.001924   -0.568711 C.3        1 UNL1     -0.0339
     25 C         4.148351   -8.494062   -1.779203 C.3        1 UNL1     -0.0615
     26 C         5.510212   -9.160887   0.243293 C.3        1 UNL1     -0.0615
     27 C         4.669037   -2.138567   -9.299403 C.ar        1 UNL1     0.1347
     28 C         3.730895   -1.123714   -9.362761 C.ar        1 UNL1     0.0342
     29 C         3.273141   -0.671245   -8.107015 C.ar        1 UNL1     0.1435
     30 C         3.693704   -1.233188   -6.900961 C.ar        1 UNL1     0.0774
     31 O         2.277047   0.23561   -8.00495 O.3        1 UNL1     -0.4436
     32 C         1.784472   0.084004   -6.665077 C.3        1 UNL1     0.3143
     33 C         2.930588   -0.532814   -5.889083 C.2        1 UNL1     0.2504
     34 C         3.06826   -0.612255   -10.61153 C.3        1 UNL1     -0.0327
     35 O         1.58157   1.399486   -6.134426 O.2        1 UNL1     -0.4528
     36 C         -1.273615   1.09137   -3.652276 C.3        1 UNL1     0.0854
     37 C         -1.393597   0.164647   -2.381721 C.3        1 UNL1     0.0236
     38 C         -1.711297   0.934477   -1.011257 C.3        1 UNL1     0.1131
     39 C         -0.831206   2.178688   -0.587407 C.3        1 UNL1     0.0200
     40 C         0.828534   2.133384   -0.747562 C.3        1 UNL1     0.0661
     41 C         1.846195   0.891892   -0.199224 C.3        1 UNL1     0.0091
     42 C         3.426186   0.258792   -0.883487 C.3        1 UNL1     0.0661
     43 C         5.979877   -3.906196   -8.105738 C.2        1 UNL1     0.2131
     44 O         6.170222   -4.610186   -9.080882 O.2        1 UNL1     -0.2851
     45 O         5.253625   -2.598136   -10.477745 O.3        1 UNL1     -0.5056
     46 O         3.171902   -0.446918   -4.705765 O.2        1 UNL1     -0.2836
     47 C         5.514088   1.775676   -1.559903 C.3        1 UNL1     -0.0566
     48 O         4.127232   0.267108   0.423258 O.3        1 UNL1     -0.3909
     49 C         1.001592   -0.313528   0.148772 C.3        1 UNL1     -0.0577
     50 O         1.218247   2.540537   -2.043738 O.3        1 UNL1     -0.3910
     51 O         -1.284985   2.479355   -3.405699 O.3        1 UNL1     -0.3753
     52 C         -0.401936   -1.042573   -2.446364 C.3        1 UNL1     -0.0564
     53 O         -2.163551   0.02787   0.095927 O.3        1 UNL1     -0.4608
     54 C         -2.614529   -1.256477   -0.062187 C.2        1 UNL1     0.3042
     55 O         -3.399469   -1.672984   -0.913204 O.2        1 UNL1     -0.2512
     56 C         -2.005793   -2.231031   0.905489 C.3        1 UNL1     0.0332
     57 C         -1.59167   3.497167   -1.078815 C.3        1 UNL1     -0.0567
     58 C         0.625034   -0.936728   -6.738161 C.3        1 UNL1     0.0210
     59 C         -0.993267   2.851378   -2.059458 C.3        1 UNL1     0.0372
     60 C         -0.095512   0.819222   -4.520129 C.2        1 UNL1     -0.0208
     61 C         0.769379   1.658301   -5.091667 C.2        1 UNL1     0.0882
     62 H         4.32719   0.521342   -2.825698 H        1 UNL1     0.0365
     63 H         5.739253   -0.357896   -4.010286 H        1 UNL1     0.0576
     64 H         8.039063   -1.523239   -2.322203 H        1 UNL1     0.0615
     65 H         7.396875   -1.593713   -5.378424 H        1 UNL1     0.0622
     66 H         -2.157227   0.845277   -4.257846 H        1 UNL1     0.0645
     67 H         -2.333015   -0.391982   -2.543642 H        1 UNL1     0.0362
     68 H         -2.701273   1.347717   -1.257637 H        1 UNL1     0.0741
     69 H         -0.962504   2.353076   0.472196 H        1 UNL1     0.0359
     70 H         1.106306   2.983443   -0.095409 H        1 UNL1     0.0600
     71 H         2.097683   1.278711   0.807793 H        1 UNL1     0.0348
     72 H         3.287147   1.259601   -1.317496 H        1 UNL1     0.0602
     73 H         -0.07221   -0.213976   -4.763455 H        1 UNL1     0.0628
     74 H         0.848861   2.719332   -4.852644 H        1 UNL1     0.1022
     75 H         10.865214   -3.360102   -4.10628 H        1 UNL1     0.0279
     76 H         9.852439   -4.746609   -4.034262 H        1 UNL1     0.0279
     77 H         10.67808   -4.243571   -5.564153 H        1 UNL1     0.0279
     78 H         7.940882   -5.205803   -5.813874 H        1 UNL1     0.1553
     79 H         6.971956   -4.84371   -4.123816 H        1 UNL1     0.1484
     80 H         3.392618   -4.820381   -2.848164 H        1 UNL1     0.0317
     81 H         3.811243   -5.264875   -4.496528 H        1 UNL1     0.0317
     82 H         5.844241   -6.505113   -3.707582 H        1 UNL1     0.0428
     83 H         4.367884   -7.089049   -2.971992 H        1 UNL1     0.0428
     84 H         6.747631   -4.451129   -0.63077 H        1 UNL1     0.0428
     85 H         7.362215   -4.856372   -2.195119 H        1 UNL1     0.0428
     86 H         6.196698   -2.661703   -1.971843 H        1 UNL1     0.0317
     87 H         4.726414   -3.378483   -1.495562 H        1 UNL1     0.0317
     88 H         6.755972   -7.61442   -1.691511 H        1 UNL1     0.0429
     89 H         6.717115   -6.774275   -0.139453 H        1 UNL1     0.0429
     90 H         4.285298   -7.458201   0.104483 H        1 UNL1     0.0308
     91 H         4.334781   -7.874097   -2.661239 H        1 UNL1     0.0233
     92 H         4.394433   -9.532668   -2.012335 H        1 UNL1     0.0233
     93 H         3.067307   -8.469674   -1.595941 H        1 UNL1     0.0233
     94 H         5.964055   -9.904829   -0.420343 H        1 UNL1     0.0233
     95 H         6.284406   -8.802646   0.92758 H        1 UNL1     0.0233
     96 H         4.724078   -9.65048   0.824895 H        1 UNL1     0.0233
     97 H         1.987496   -0.708636   -10.568042 H        1 UNL1     0.0280
     98 H         3.268381   0.454095   -10.779176 H        1 UNL1     0.0280
     99 H         3.431311   -1.182696   -11.482096 H        1 UNL1     0.0280
     100 H         6.192689   -2.654384   -10.452892 H        1 UNL1     0.2922
     101 H         5.001589   2.54345   -2.139148 H        1 UNL1     0.0236
     102 H         6.597372   1.852758   -1.646722 H        1 UNL1     0.0236
     103 H         5.297831   2.027512   -0.508236 H        1 UNL1     0.0236
     104 H         3.567837   -0.217775   1.061173 H        1 UNL1     0.2098
     105 H         1.175819   -1.181319   -0.482415 H        1 UNL1     0.0234
     106 H         1.027788   -0.59972   1.200121 H        1 UNL1     0.0234
     107 H         -0.0   0.0   0.0 H        1 UNL1     0.0234
     108 H         0.403163   2.652961   -2.569826 H        1 UNL1     0.2098
     109 H         0.170248   -1.061111   -3.384433 H        1 UNL1     0.0234
     110 H         0.287375   -1.079345   -1.595927 H        1 UNL1     0.0234
     111 H         -0.931066   -2.003817   -2.401902 H        1 UNL1     0.0234
     112 H         -2.261605   -3.254162   0.613753 H        1 UNL1     0.0342
     113 H         -0.927144   -2.106448   0.98819 H        1 UNL1     0.0342
     114 H         -2.439367   -2.045398   1.897819 H        1 UNL1     0.0342
     115 H         -1.617934   3.568935   -2.174875 H        1 UNL1     0.0234
     116 H         -2.619714   3.576555   -0.719827 H        1 UNL1     0.0234
     117 H         -1.066265   4.431586   -0.816609 H        1 UNL1     0.0234
     118 H         0.768789   -1.778278   -6.038065 H        1 UNL1     0.0309
     119 H         -0.356253   -0.485797   -6.559443 H        1 UNL1     0.0309
     120 H         0.559257   -1.428951   -7.714632 H        1 UNL1     0.0309
     121 H         -1.942487   2.987423   -1.541936 H        1 UNL1     0.0524
     122 H         -0.431108   2.069717   -1.521852 H        1 UNL1     0.0524
     123 H         -0.420264   3.774088   -2.040256 H        1 UNL1     0.0524
@<TRIPOS>BOND
     1     1     2    1
     2     1    42    1
     3     2     3    2
     4     3     4    1
     5     4     5    2
     6     5     7    1
     7     6    75    1
     8     6    76    1
     9     6    77    1
    10     7     9   am
    11     9    10    1
    12    10    11    2
    13    10    43    1
    14    11    14    1
    15    11    15    1
    16    12    13   ar
    17    12    27   ar
    18    12    43    1
    19    13    14    1
    20    13    30   ar
    21    14    17    2
    22    15    16    1
    23    16    17    1
    24    16    18    1
    25    16    22    1
    26    18    19    1
    27    19    20    1
    28    20    21    1
    29    21    22    1
    30    23    24    1
    31    23    88    1
    32    23    89    1
    33    24    25    1
    34    24    26    1
    35    24    90    1
    36    25    91    1
    37    25    92    1
    38    25    93    1
    39    26    94    1
    40    26    95    1
    41    26    96    1
    42    27    28   ar
    43    28    29   ar
    44    29    30   ar
    45    29    31    1
    46    30    33    1
    47    31    32    1
    48    32    33    1
    49    32    35    1
    50    34    97    1
    51    34    98    1
    52    34    99    1
    53    35    61    1
    54    36    37    1
    55    36    60    1
    56    37    38    1
    57    38    39    1
    58    39    40    1
    59    40    41    1
    60    41    42    1
    61    45   100    1
    62    47   101    1
    63    47   102    1
    64    47   103    1
    65    48   104    1
    66    49   105    1
    67    49   106    1
    68    49   107    1
    69    50   108    1
    70    51    59    1
    71    52   109    1
    72    52   110    1
    73    52   111    1
    74    53    54    1
    75    54    55    2
    76    54    56    1
    77    56   112    1
    78    56   113    1
    79    56   114    1
    80    57   115    1
    81    57   116    1
    82    57   117    1
    83    58   118    1
    84    58   119    1
    85    58   120    1
    86    59   121    1
    87    59   122    1
    88    59   123    1
    89    60    61    2
    90     1    47    1
    91     1    62    1
    92     2    63    1
    93     3    64    1
    94     4    65    1
    95     5     6    1
    96     7     8    2
    97     9    78    1
    98    15    79    1
    99    18    80    1
   100    18    81    1
   101    19    82    1
   102    19    83    1
   103    20    23    1
   104    21    84    1
   105    21    85    1
   106    22    86    1
   107    22    87    1
   108    27    45    1
   109    28    34    1
   110    32    58    1
   111    33    46    2
   112    36    51    1
   113    36    66    1
   114    37    52    1
   115    37    67    1
   116    38    53    1
   117    38    68    1
   118    42    48    1
   119    42    72    1
   120    43    44    2
   121    60    73    1
   122    61    74    1
   123    39    69    1
   124    39    57    1
   125    40    70    1
   126    40    50    1
   127    41    71    1
   128    41    49    1
