@<TRIPOS>MOLECULE
*****
 123 128 0 0 0
SMALL
GASTEIGER

@<TRIPOS>ATOM
     1 C         -3.425019   2.645528   3.350311 C.3        1 UNL1     0.0009
     2 C         -4.513976   4.132079   3.55372 C.2        1 UNL1     -0.0787
     3 C         -4.761342   5.439171   4.125004 C.2        1 UNL1     -0.0649
     4 C         -6.054224   6.485414   3.808477 C.2        1 UNL1     -0.0542
     5 C         -6.506286   7.826316   3.877032 C.2        1 UNL1     0.0115
     6 C         -6.17825   9.235655   4.442256 C.3        1 UNL1     -0.0348
     7 C         -7.767911   8.26723   2.987714 C.2        1 UNL1     0.2441
     8 O         -8.891912   8.406338   3.450093 O.2        1 UNL1     -0.2702
     9 N         -7.447162   8.735053   1.701474 N.am        1 UNL1     -0.2772
     10 C         -7.391314   7.688468   0.809923 C.2        1 UNL1     0.1049
     11 C         -6.257016   7.012879   0.775755 C.2        1 UNL1     0.0801
     12 C         -8.657615   5.676863   0.030653 C.ar        1 UNL1     0.0753
     13 C         -7.443958   4.939976   0.211328 C.ar        1 UNL1     0.0305
     14 C         -6.171255   5.611873   0.463979 C.2        1 UNL1     0.0924
     15 N         -5.062435   7.302403   1.31952 N.pl3        1 UNL1     -0.3170
     16 C         -4.115489   6.329323   0.84343 C.3        1 UNL1     0.1275
     17 N         -4.946247   5.102331   0.556973 N.2        1 UNL1     -0.2557
     18 C         -3.604154   6.819472   -0.507863 C.3        1 UNL1     0.0016
     19 C         -3.033488   8.217907   -0.333762 C.3        1 UNL1     0.0026
     20 N         -1.957227   8.165296   0.645994 N.3        1 UNL1     -0.3018
     21 C         -2.338832   7.647561   1.961553 C.3        1 UNL1     0.0026
     22 C         -2.905074   6.240421   1.763506 C.3        1 UNL1     0.0016
     23 C         -1.153543   9.371252   0.666177 C.3        1 UNL1     0.0012
     24 C         -1.65485   10.370316   -0.388489 C.3        1 UNL1     -0.0339
     25 C         -2.395644   11.550254   0.261916 C.3        1 UNL1     -0.0615
     26 C         -0.496649   10.843643   -1.249484 C.3        1 UNL1     -0.0615
     27 C         -9.842499   5.039053   -0.329023 C.ar        1 UNL1     0.1347
     28 C         -9.927946   3.68004   -0.573633 C.ar        1 UNL1     0.0342
     29 C         -8.732004   2.967826   -0.342032 C.ar        1 UNL1     0.1435
     30 C         -7.54634   3.588258   0.053552 C.ar        1 UNL1     0.0774
     31 O         -8.624399   1.654882   -0.641374 O.3        1 UNL1     -0.4436
     32 C         -7.211259   1.417161   -0.727384 C.3        1 UNL1     0.3143
     33 C         -6.57366   2.51649   0.097938 C.2        1 UNL1     0.2504
     34 C         -11.093759   2.968925   -1.202357 C.3        1 UNL1     -0.0327
     35 O         -6.945352   0.181326   -0.052658 O.2        1 UNL1     -0.4528
     36 C         -3.922028   -1.321733   -1.787137 C.3        1 UNL1     0.0854
     37 C         -2.485267   -0.70588   -1.996816 C.3        1 UNL1     0.0236
     38 C         -1.276752   -1.609787   -1.454427 C.3        1 UNL1     0.1131
     39 C         -1.320271   -2.174706   0.022476 C.3        1 UNL1     0.0200
     40 C         -1.804846   -1.199579   1.286103 C.3        1 UNL1     0.0661
     41 C         -1.224046   0.359425   1.617444 C.3        1 UNL1     0.0091
     42 C         -2.0664   1.810397   2.359418 C.3        1 UNL1     0.0661
     43 C         -8.592886   7.154515   0.151536 C.2        1 UNL1     0.2131
     44 O         -9.411905   7.906903   -0.344305 O.2        1 UNL1     -0.2851
     45 O         -10.989102   5.82291   -0.439954 O.3        1 UNL1     -0.5056
     46 O         -5.511946   2.502632   0.67968 O.2        1 UNL1     -0.2836
     47 C         -3.467405   1.766918   4.629463 C.3        1 UNL1     -0.0566
     48 O         -0.964746   2.109401   3.306028 O.3        1 UNL1     -0.3909
     49 C         -0.459222   0.861455   0.413075 C.3        1 UNL1     -0.0577
     50 O         -3.209982   -1.233479   1.434983 O.3        1 UNL1     -0.3910
     51 O         -3.982311   -2.491883   -1.003208 O.3        1 UNL1     -0.3753
     52 C         -2.491733   0.850481   -1.846328 C.3        1 UNL1     -0.0564
     53 O         0.068054   -1.185462   -1.968015 O.3        1 UNL1     -0.4608
     54 C         1.105009   -2.028076   -2.272408 C.2        1 UNL1     0.3042
     55 O         1.10498   -2.947343   -3.090201 O.2        1 UNL1     -0.2512
     56 C         2.374236   -1.710919   -1.534039 C.3        1 UNL1     0.0332
     57 C         -1.916152   -3.657426   -0.04567 C.3        1 UNL1     -0.0567
     58 C         -6.823368   1.61824   -2.210839 C.3        1 UNL1     0.0210
     59 C         -5.254282   -3.138195   -0.987852 C.3        1 UNL1     0.0372
     60 C         -4.934512   -0.381662   -1.233689 C.2        1 UNL1     -0.0208
     61 C         -5.838275   -0.554791   -0.268295 C.2        1 UNL1     0.0882
     62 H         -4.162466   2.224062   2.65659 H        1 UNL1     0.0365
     63 H         -5.395119   3.817565   2.99057 H        1 UNL1     0.0576
     64 H         -4.006205   5.955059   4.722277 H        1 UNL1     0.0615
     65 H         -6.776961   5.855114   3.283257 H        1 UNL1     0.0622
     66 H         -4.265613   -1.572126   -2.800695 H        1 UNL1     0.0645
     67 H         -2.327109   -0.759798   -3.08798 H        1 UNL1     0.0362
     68 H         -1.397095   -2.488318   -2.106519 H        1 UNL1     0.0741
     69 H         -0.319037   -2.461763   0.314942 H        1 UNL1     0.0359
     70 H         -1.421861   -1.790049   2.140344 H        1 UNL1     0.0600
     71 H         -0.397369   0.114008   2.312666 H        1 UNL1     0.0348
     72 H         -2.667085   0.933708   2.642101 H        1 UNL1     0.0602
     73 H         -4.949764   0.501594   -1.822649 H        1 UNL1     0.0628
     74 H         -5.85425   -1.403361   0.416475 H        1 UNL1     0.1022
     75 H         -6.960292   9.557269   5.171645 H        1 UNL1     0.0279
     76 H         -5.264024   9.323945   5.024893 H        1 UNL1     0.0279
     77 H         -6.252645   10.026736   3.681757 H        1 UNL1     0.0279
     78 H         -6.528981   9.174144   1.71632 H        1 UNL1     0.1553
     79 H         -4.793822   8.222611   1.616165 H        1 UNL1     0.1484
     80 H         -2.844645   6.12014   -0.877791 H        1 UNL1     0.0317
     81 H         -4.40911   6.829662   -1.250556 H        1 UNL1     0.0317
     82 H         -3.807699   8.939029   -0.032943 H        1 UNL1     0.0428
     83 H         -2.676319   8.548859   -1.309442 H        1 UNL1     0.0428
     84 H         -1.496932   7.54352   2.653066 H        1 UNL1     0.0428
     85 H         -3.029917   8.324541   2.482529 H        1 UNL1     0.0428
     86 H         -3.048271   5.844204   2.751683 H        1 UNL1     0.0317
     87 H         -2.137194   5.584279   1.335798 H        1 UNL1     0.0317
     88 H         -1.252594   9.831125   1.658145 H        1 UNL1     0.0429
     89 H         -0.089481   9.143788   0.521936 H        1 UNL1     0.0429
     90 H         -2.344491   9.857771   -1.069595 H        1 UNL1     0.0308
     91 H         -3.44578   11.577823   -0.043954 H        1 UNL1     0.0233
     92 H         -2.340924   11.487508   1.351264 H        1 UNL1     0.0233
     93 H         -1.959311   12.518769   -0.010894 H        1 UNL1     0.0233
     94 H         -0.866642   11.466562   -2.071015 H        1 UNL1     0.0233
     95 H         0.190945   11.448119   -0.651333 H        1 UNL1     0.0233
     96 H         0.054101   10.000598   -1.676002 H        1 UNL1     0.0233
     97 H         -10.866469   1.930308   -1.423364 H        1 UNL1     0.0280
     98 H         -11.971703   2.950807   -0.543462 H        1 UNL1     0.0280
     99 H         -11.367556   3.47085   -2.144802 H        1 UNL1     0.0280
     100 H         -11.140021   6.401002   0.287134 H        1 UNL1     0.2922
     101 H         -3.228635   2.375357   5.501499 H        1 UNL1     0.0236
     102 H         -2.835441   0.881957   4.562768 H        1 UNL1     0.0236
     103 H         -4.478795   1.375536   4.829723 H        1 UNL1     0.0236
     104 H         -0.545238   2.943168   3.016518 H        1 UNL1     0.2098
     105 H         -1.080231   1.309744   -0.358415 H        1 UNL1     0.0234
     106 H         0.381962   1.513738   0.647307 H        1 UNL1     0.0234
     107 H         0.0   0.0   0.0 H        1 UNL1     0.0234
     108 H         -3.595158   -0.790085   0.65472 H        1 UNL1     0.2098
     109 H         -2.907275   1.352248   -2.731352 H        1 UNL1     0.0234
     110 H         -3.018265   1.193972   -0.949377 H        1 UNL1     0.0234
     111 H         -1.475656   1.249865   -1.727888 H        1 UNL1     0.0234
     112 H         3.219422   -1.712528   -2.229024 H        1 UNL1     0.0342
     113 H         2.310856   -0.76506   -0.99815 H        1 UNL1     0.0342
     114 H         2.546679   -2.502864   -0.79225 H        1 UNL1     0.0342
     115 H         -2.734472   -3.735601   -0.774662 H        1 UNL1     0.0234
     116 H         -1.177943   -4.42141   -0.297514 H        1 UNL1     0.0234
     117 H         -2.42643   -3.96952   0.881776 H        1 UNL1     0.0234
     118 H         -5.761041   1.382204   -2.397263 H        1 UNL1     0.0309
     119 H         -7.445394   1.038259   -2.899974 H        1 UNL1     0.0309
     120 H         -6.909834   2.66261   -2.53009 H        1 UNL1     0.0309
     121 H         -5.269098   -3.856352   -1.807235 H        1 UNL1     0.0524
     122 H         -5.428288   -3.697153   -0.053333 H        1 UNL1     0.0524
     123 H         -6.048459   -2.407986   -1.115021 H        1 UNL1     0.0524
@<TRIPOS>BOND
     1     1     2    1
     2     1    42    1
     3     2     3    2
     4     3     4    1
     5     4     5    2
     6     5     7    1
     7     6    75    1
     8     6    76    1
     9     6    77    1
    10     7     9   am
    11     9    10    1
    12    10    11    2
    13    10    43    1
    14    11    14    1
    15    11    15    1
    16    12    13   ar
    17    12    27   ar
    18    12    43    1
    19    13    14    1
    20    13    30   ar
    21    14    17    2
    22    15    16    1
    23    16    17    1
    24    16    18    1
    25    16    22    1
    26    18    19    1
    27    19    20    1
    28    20    21    1
    29    21    22    1
    30    23    24    1
    31    23    88    1
    32    23    89    1
    33    24    25    1
    34    24    26    1
    35    24    90    1
    36    25    91    1
    37    25    92    1
    38    25    93    1
    39    26    94    1
    40    26    95    1
    41    26    96    1
    42    27    28   ar
    43    28    29   ar
    44    29    30   ar
    45    29    31    1
    46    30    33    1
    47    31    32    1
    48    32    33    1
    49    32    35    1
    50    34    97    1
    51    34    98    1
    52    34    99    1
    53    35    61    1
    54    36    37    1
    55    36    60    1
    56    37    38    1
    57    38    39    1
    58    39    40    1
    59    40    41    1
    60    41    42    1
    61    45   100    1
    62    47   101    1
    63    47   102    1
    64    47   103    1
    65    48   104    1
    66    49   105    1
    67    49   106    1
    68    49   107    1
    69    50   108    1
    70    51    59    1
    71    52   109    1
    72    52   110    1
    73    52   111    1
    74    53    54    1
    75    54    55    2
    76    54    56    1
    77    56   112    1
    78    56   113    1
    79    56   114    1
    80    57   115    1
    81    57   116    1
    82    57   117    1
    83    58   118    1
    84    58   119    1
    85    58   120    1
    86    59   121    1
    87    59   122    1
    88    59   123    1
    89    60    61    2
    90     1    47    1
    91     1    62    1
    92     2    63    1
    93     3    64    1
    94     4    65    1
    95     5     6    1
    96     7     8    2
    97     9    78    1
    98    15    79    1
    99    18    80    1
   100    18    81    1
   101    19    82    1
   102    19    83    1
   103    20    23    1
   104    21    84    1
   105    21    85    1
   106    22    86    1
   107    22    87    1
   108    27    45    1
   109    28    34    1
   110    32    58    1
   111    33    46    2
   112    36    51    1
   113    36    66    1
   114    37    52    1
   115    37    67    1
   116    38    53    1
   117    38    68    1
   118    42    48    1
   119    42    72    1
   120    43    44    2
   121    60    73    1
   122    61    74    1
   123    39    69    1
   124    39    57    1
   125    40    70    1
   126    40    50    1
   127    41    71    1
   128    41    49    1
