@<TRIPOS>MOLECULE
*****
 123 128 0 0 0
SMALL
GASTEIGER

@<TRIPOS>ATOM
     1 C         -3.971736   -1.741169   2.23302 C.3        1 UNL1     0.0009
     2 C         -5.2549   -3.061888   2.01801 C.2        1 UNL1     -0.0787
     3 C         -6.477548   -3.53747   1.405638 C.2        1 UNL1     -0.0649
     4 C         -7.177357   -5.073603   1.535713 C.2        1 UNL1     -0.0542
     5 C         -8.083019   -5.990463   0.947306 C.2        1 UNL1     0.0115
     6 C         -9.180624   -6.149865   -0.140433 C.3        1 UNL1     -0.0348
     7 C         -7.998407   -7.539435   1.360241 C.2        1 UNL1     0.2441
     8 O         -8.779073   -8.062977   2.143178 O.2        1 UNL1     -0.2702
     9 N         -7.13409   -8.314056   0.567101 N.am        1 UNL1     -0.2772
     10 C         -5.85535   -8.277581   1.07387 C.2        1 UNL1     0.1049
     11 C         -5.12408   -7.23175   0.733717 C.2        1 UNL1     0.0801
     12 C         -4.552748   -8.547893   3.19224 C.ar        1 UNL1     0.0753
     13 C         -3.934453   -7.29545   2.879659 C.ar        1 UNL1     0.0305
     14 C         -4.105487   -6.662501   1.573836 C.2        1 UNL1     0.0924
     15 N         -5.345138   -6.289772   -0.199202 N.pl3        1 UNL1     -0.3170
     16 C         -4.163183   -5.474169   -0.288805 C.3        1 UNL1     0.1275
     17 N         -3.535576   -5.566669   1.080603 N.2        1 UNL1     -0.2557
     18 C         -3.201497   -6.175041   -1.243604 C.3        1 UNL1     0.0016
     19 C         -3.910639   -6.400532   -2.569447 C.3        1 UNL1     0.0026
     20 N         -4.329812   -5.111032   -3.100964 N.3        1 UNL1     -0.3018
     21 C         -5.209183   -4.333743   -2.225238 C.3        1 UNL1     0.0026
     22 C         -4.475143   -4.115024   -0.901138 C.3        1 UNL1     0.0016
     23 C         -4.744082   -5.18055   -4.488116 C.3        1 UNL1     0.0012
     24 C         -5.82209   -4.125376   -4.781822 C.3        1 UNL1     -0.0339
     25 C         -6.835348   -4.631008   -5.821871 C.3        1 UNL1     -0.0615
     26 C         -6.506446   -3.707056   -3.492075 C.3        1 UNL1     -0.0615
     27 C         -4.288656   -9.203536   4.392452 C.ar        1 UNL1     0.1347
     28 C         -3.397478   -8.726261   5.336941 C.ar        1 UNL1     0.0342
     29 C         -2.837936   -7.467823   5.029678 C.ar        1 UNL1     0.1435
     30 C         -3.1209   -6.782145   3.847731 C.ar        1 UNL1     0.0774
     31 O         -1.869439   -6.92099   5.796485 O.3        1 UNL1     -0.4436
     32 C         -1.245779   -5.9432   4.950408 C.3        1 UNL1     0.3143
     33 C         -2.289733   -5.597946   3.907732 C.2        1 UNL1     0.2504
     34 C         -2.876006   -9.489877   6.522292 C.3        1 UNL1     -0.0327
     35 O         -1.039789   -4.765604   5.7404 O.2        1 UNL1     -0.4528
     36 C         2.04905   -3.082673   4.313897 C.3        1 UNL1     0.0854
     37 C         2.322919   -2.585449   2.842406 C.3        1 UNL1     0.0236
     38 C         2.742866   -1.042798   2.717435 C.3        1 UNL1     0.1131
     39 C         1.863825   0.069528   3.419066 C.3        1 UNL1     0.0200
     40 C         0.199032   0.009125   3.333895 C.3        1 UNL1     0.0661
     41 C         -0.716779   -0.198011   1.921098 C.3        1 UNL1     0.0091
     42 C         -2.331571   -1.028727   1.660791 C.3        1 UNL1     0.0661
     43 C         -5.415669   -9.169445   2.157204 C.2        1 UNL1     0.2131
     44 O         -5.673413   -10.358994   2.121422 O.2        1 UNL1     -0.2851
     45 O         -4.966707   -10.39552   4.639151 O.3        1 UNL1     -0.5056
     46 O         -2.419539   -4.568782   3.283372 O.2        1 UNL1     -0.2836
     47 C         -4.527124   -0.587509   3.110856 C.3        1 UNL1     -0.0566
     48 O         -2.904138   0.083259   0.864067 O.3        1 UNL1     -0.3909
     49 C         0.199481   -0.656031   0.808363 C.3        1 UNL1     -0.0577
     50 O         -0.327183   -0.792057   4.372609 O.3        1 UNL1     -0.3910
     51 O         2.034739   -2.084124   5.308948 O.3        1 UNL1     -0.3753
     52 C         1.373068   -3.274679   1.809113 C.3        1 UNL1     -0.0564
     53 O         3.330915   -0.686634   1.383392 O.3        1 UNL1     -0.4608
     54 C         3.127509   0.491585   0.713798 C.2        1 UNL1     0.3042
     55 O         3.983232   1.246762   0.254142 O.2        1 UNL1     -0.2512
     56 C         1.677128   0.818285   0.49845 C.3        1 UNL1     0.0332
     57 C         2.526504   0.38232   4.840753 C.3        1 UNL1     -0.0567
     58 C         -0.063195   -6.656984   4.255039 C.3        1 UNL1     0.0210
     59 C         3.164373   -2.090295   6.180588 C.3        1 UNL1     0.0372
     60 C         0.803666   -3.879045   4.487023 C.2        1 UNL1     -0.0208
     61 C         -0.141185   -3.812905   5.425972 C.2        1 UNL1     0.0882
     62 H         -3.42313   -2.410626   2.906496 H        1 UNL1     0.0365
     63 H         -4.910044   -3.80094   2.744196 H        1 UNL1     0.0576
     64 H         -6.994884   -2.959655   0.636482 H        1 UNL1     0.0615
     65 H         -6.646161   -5.531805   2.374382 H        1 UNL1     0.0622
     66 H         2.878794   -3.76969   4.532024 H        1 UNL1     0.0645
     67 H         3.261667   -3.092149   2.558562 H        1 UNL1     0.0362
     68 H         3.689423   -1.06378   3.278784 H        1 UNL1     0.0741
     69 H         2.089701   1.026964   2.968839 H        1 UNL1     0.0359
     70 H         -0.044999   1.046215   3.633818 H        1 UNL1     0.0600
     71 H         -0.884258   0.860856   1.642337 H        1 UNL1     0.0348
     72 H         -2.270309   -0.815645   2.737897 H        1 UNL1     0.0602
     73 H         0.793834   -4.670277   3.779137 H        1 UNL1     0.0628
     74 H         -0.235   -3.003216   6.15043 H        1 UNL1     0.1022
     75 H         -9.332339   -7.22788   -0.389235 H        1 UNL1     0.0279
     76 H         -10.183595   -5.828861   0.131735 H        1 UNL1     0.0279
     77 H         -8.875147   -5.743207   -1.115632 H        1 UNL1     0.0279
     78 H         -7.100904   -7.932239   -0.375868 H        1 UNL1     0.1553
     79 H         -5.988075   -6.400967   -0.961567 H        1 UNL1     0.1484
     80 H         -2.306136   -5.554217   -1.368792 H        1 UNL1     0.0317
     81 H         -2.864626   -7.130779   -0.827992 H        1 UNL1     0.0317
     82 H         -4.767476   -7.081877   -2.462151 H        1 UNL1     0.0428
     83 H         -3.207697   -6.902938   -3.234662 H        1 UNL1     0.0428
     84 H         -5.444414   -3.337422   -2.612306 H        1 UNL1     0.0428
     85 H         -6.191188   -4.811473   -2.103754 H        1 UNL1     0.0428
     86 H         -5.088224   -3.435174   -0.339065 H        1 UNL1     0.0317
     87 H         -3.554601   -3.543892   -1.072913 H        1 UNL1     0.0317
     88 H         -3.868945   -4.970494   -5.11685 H        1 UNL1     0.0429
     89 H         -5.093877   -6.187487   -4.74983 H        1 UNL1     0.0429
     90 H         -5.34196   -3.220665   -5.173211 H        1 UNL1     0.0308
     91 H         -7.163918   -5.649572   -5.594556 H        1 UNL1     0.0233
     92 H         -7.707098   -3.973774   -5.863173 H        1 UNL1     0.0233
     93 H         -6.418472   -4.650115   -6.836112 H        1 UNL1     0.0233
     94 H         -7.491468   -3.279636   -3.70859 H        1 UNL1     0.0233
     95 H         -6.651307   -4.577824   -2.84652 H        1 UNL1     0.0233
     96 H         -5.917255   -2.960994   -2.951507 H        1 UNL1     0.0233
     97 H         -1.793308   -9.572536   6.509497 H        1 UNL1     0.0280
     98 H         -3.128952   -9.002031   7.472702 H        1 UNL1     0.0280
     99 H         -3.300277   -10.50727   6.52158 H        1 UNL1     0.0280
     100 H         -5.053641   -10.615201   5.550087 H        1 UNL1     0.2922
     101 H         -4.099992   -0.648616   4.111597 H        1 UNL1     0.0236
     102 H         -5.615793   -0.551164   3.132355 H        1 UNL1     0.0236
     103 H         -4.22024   0.403043   2.735596 H        1 UNL1     0.0236
     104 H         -2.596978   0.920719   1.263171 H        1 UNL1     0.2098
     105 H         1.259006   -0.584751   1.041036 H        1 UNL1     0.0234
     106 H         -0.032942   -1.640876   0.403413 H        1 UNL1     0.0234
     107 H         0.0   0.0   -0.0 H        1 UNL1     0.0234
     108 H         -1.222184   -0.456418   4.57283 H        1 UNL1     0.2098
     109 H         1.49911   -4.36625   1.791877 H        1 UNL1     0.0234
     110 H         0.316904   -3.03021   1.965626 H        1 UNL1     0.0234
     111 H         1.575712   -2.935853   0.78438 H        1 UNL1     0.0234
     112 H         1.585726   1.711598   -0.126836 H        1 UNL1     0.0342
     113 H         1.128541   -0.017966   0.06766 H        1 UNL1     0.0342
     114 H         1.227458   1.043512   1.4753 H        1 UNL1     0.0342
     115 H         2.398811   1.435081   5.128112 H        1 UNL1     0.0234
     116 H         2.137234   -0.23023   5.656413 H        1 UNL1     0.0234
     117 H         3.626471   0.292827   4.842637 H        1 UNL1     0.0234
     118 H         0.913226   -6.291616   4.618514 H        1 UNL1     0.0309
     119 H         -0.098667   -7.746239   4.35735 H        1 UNL1     0.0309
     120 H         -0.023995   -6.454593   3.179117 H        1 UNL1     0.0309
     121 H         2.855328   -1.641003   7.123978 H        1 UNL1     0.0524
     122 H         3.518353   -3.111487   6.399455 H        1 UNL1     0.0524
     123 H         3.979551   -1.520688   5.743407 H        1 UNL1     0.0524
@<TRIPOS>BOND
     1     1     2    1
     2     1    42    1
     3     2     3    2
     4     3     4    1
     5     4     5    2
     6     5     7    1
     7     6    75    1
     8     6    76    1
     9     6    77    1
    10     7     9   am
    11     9    10    1
    12    10    11    2
    13    10    43    1
    14    11    14    1
    15    11    15    1
    16    12    13   ar
    17    12    27   ar
    18    12    43    1
    19    13    14    1
    20    13    30   ar
    21    14    17    2
    22    15    16    1
    23    16    17    1
    24    16    18    1
    25    16    22    1
    26    18    19    1
    27    19    20    1
    28    20    21    1
    29    21    22    1
    30    23    24    1
    31    23    88    1
    32    23    89    1
    33    24    25    1
    34    24    26    1
    35    24    90    1
    36    25    91    1
    37    25    92    1
    38    25    93    1
    39    26    94    1
    40    26    95    1
    41    26    96    1
    42    27    28   ar
    43    28    29   ar
    44    29    30   ar
    45    29    31    1
    46    30    33    1
    47    31    32    1
    48    32    33    1
    49    32    35    1
    50    34    97    1
    51    34    98    1
    52    34    99    1
    53    35    61    1
    54    36    37    1
    55    36    60    1
    56    37    38    1
    57    38    39    1
    58    39    40    1
    59    40    41    1
    60    41    42    1
    61    45   100    1
    62    47   101    1
    63    47   102    1
    64    47   103    1
    65    48   104    1
    66    49   105    1
    67    49   106    1
    68    49   107    1
    69    50   108    1
    70    51    59    1
    71    52   109    1
    72    52   110    1
    73    52   111    1
    74    53    54    1
    75    54    55    2
    76    54    56    1
    77    56   112    1
    78    56   113    1
    79    56   114    1
    80    57   115    1
    81    57   116    1
    82    57   117    1
    83    58   118    1
    84    58   119    1
    85    58   120    1
    86    59   121    1
    87    59   122    1
    88    59   123    1
    89    60    61    2
    90     1    47    1
    91     1    62    1
    92     2    63    1
    93     3    64    1
    94     4    65    1
    95     5     6    1
    96     7     8    2
    97     9    78    1
    98    15    79    1
    99    18    80    1
   100    18    81    1
   101    19    82    1
   102    19    83    1
   103    20    23    1
   104    21    84    1
   105    21    85    1
   106    22    86    1
   107    22    87    1
   108    27    45    1
   109    28    34    1
   110    32    58    1
   111    33    46    2
   112    36    51    1
   113    36    66    1
   114    37    52    1
   115    37    67    1
   116    38    53    1
   117    38    68    1
   118    42    48    1
   119    42    72    1
   120    43    44    2
   121    60    73    1
   122    61    74    1
   123    39    69    1
   124    39    57    1
   125    40    70    1
   126    40    50    1
   127    41    71    1
   128    41    49    1
