@<TRIPOS>MOLECULE
*****
 123 128 0 0 0
SMALL
GASTEIGER

@<TRIPOS>ATOM
     1 C         -1.838935   -1.765927   3.247083 C.3        1 UNL1     0.0009
     2 C         -2.527881   -3.482407   3.373919 C.2        1 UNL1     -0.0787
     3 C         -3.646163   -4.397122   3.280173 C.2        1 UNL1     -0.0649
     4 C         -3.624582   -6.084494   3.416794 C.2        1 UNL1     -0.0542
     5 C         -4.32287   -7.282018   3.124545 C.2        1 UNL1     0.0115
     6 C         -5.673427   -7.856956   2.615855 C.3        1 UNL1     -0.0348
     7 C         -3.526727   -8.675375   3.165791 C.2        1 UNL1     0.2441
     8 O         -3.609338   -9.461581   4.099376 O.2        1 UNL1     -0.2702
     9 N         -2.935258   -9.052048   1.947417 N.am        1 UNL1     -0.2772
     10 C         -1.67068   -8.519876   1.842735 C.2        1 UNL1     0.1049
     11 C         -1.597834   -7.271821   1.416972 C.2        1 UNL1     0.0801
     12 C         0.481761   -8.260467   3.090549 C.ar        1 UNL1     0.0753
     13 C         0.405075   -6.866171   2.776437 C.ar        1 UNL1     0.0305
     14 C         -0.569375   -6.350322   1.817584 C.2        1 UNL1     0.0924
     15 N         -2.542407   -6.490779   0.865353 N.pl3        1 UNL1     -0.3170
     16 C         -1.906314   -5.278999   0.421249 C.3        1 UNL1     0.1275
     17 N         -0.71706   -5.11916   1.33659 N.2        1 UNL1     -0.2557
     18 C         -1.337753   -5.549848   -0.968385 C.3        1 UNL1     0.0016
     19 C         -2.463297   -6.034296   -1.868413 C.3        1 UNL1     0.0026
     20 N         -3.497828   -5.010329   -1.916009 N.3        1 UNL1     -0.3018
     21 C         -4.063316   -4.637044   -0.617837 C.3        1 UNL1     0.0026
     22 C         -2.916078   -4.149128   0.268548 C.3        1 UNL1     0.0016
     23 C         -4.466813   -5.236219   -2.969899 C.3        1 UNL1     0.0012
     24 C         -3.829916   -4.995938   -4.347718 C.3        1 UNL1     -0.0339
     25 C         -2.386301   -5.522578   -4.399499 C.3        1 UNL1     -0.0615
     26 C         -4.690561   -5.616233   -5.434596 C.3        1 UNL1     -0.0615
     27 C         1.489469   -8.760971   3.911608 C.ar        1 UNL1     0.1347
     28 C         2.495598   -7.973808   4.442765 C.ar        1 UNL1     0.0342
     29 C         2.37172   -6.59689   4.160069 C.ar        1 UNL1     0.1435
     30 C         1.347039   -6.076078   3.368866 C.ar        1 UNL1     0.0774
     31 O         3.332531   -5.715583   4.513828 O.3        1 UNL1     -0.4436
     32 C         3.101896   -4.572275   3.676853 C.3        1 UNL1     0.3143
     33 C         1.642873   -4.661547   3.277485 C.2        1 UNL1     0.2504
     34 C         3.742102   -8.473425   5.118568 C.3        1 UNL1     -0.0327
     35 O         3.238619   -3.407306   4.4999 O.2        1 UNL1     -0.4528
     36 C         4.490362   -0.653894   2.206441 C.3        1 UNL1     0.0854
     37 C         3.844917   -0.089663   0.882595 C.3        1 UNL1     0.0236
     38 C         3.596532   1.494625   0.873739 C.3        1 UNL1     0.1131
     39 C         2.833806   2.176529   2.080192 C.3        1 UNL1     0.0200
     40 C         1.463977   1.471959   2.720183 C.3        1 UNL1     0.0661
     41 C         0.123333   0.923834   1.837095 C.3        1 UNL1     0.0091
     42 C         -1.024318   -0.470679   2.159015 C.3        1 UNL1     0.0661
     43 C         -0.494776   -9.169507   2.440717 C.2        1 UNL1     0.2131
     44 O         -0.312226   -10.365443   2.30233 O.2        1 UNL1     -0.2851
     45 O         1.465727   -10.122901   4.204902 O.3        1 UNL1     -0.5056
     46 O         0.88848   -3.764559   2.973908 O.2        1 UNL1     -0.2836
     47 C         -2.269915   -0.919754   4.475183 C.3        1 UNL1     -0.0566
     48 O         -2.24788   0.329947   1.912013 O.3        1 UNL1     -0.3909
     49 C         0.496858   0.858876   0.372939 C.3        1 UNL1     -0.0577
     50 O         1.804211   0.529328   3.716882 O.3        1 UNL1     -0.3910
     51 O         4.607002   0.260376   3.273181 O.3        1 UNL1     -0.3753
     52 C         2.821944   -1.094912   0.259739 C.3        1 UNL1     -0.0564
     53 O         3.319438   2.051457   -0.492088 O.3        1 UNL1     -0.4608
     54 C         2.944014   3.341085   -0.763836 C.2        1 UNL1     0.3042
     55 O         1.815651   3.748742   -1.03669 O.2        1 UNL1     -0.2512
     56 C         4.067097   4.331837   -0.646323 C.3        1 UNL1     0.0332
     57 C         3.937068   2.723286   3.100998 C.3        1 UNL1     -0.0567
     58 C         3.976901   -4.768838   2.416988 C.3        1 UNL1     0.0210
     59 C         5.662854   -0.020738   4.190796 C.3        1 UNL1     0.0372
     60 C         3.835771   -1.872665   2.755321 C.2        1 UNL1     -0.0208
     61 C         3.491351   -2.179785   4.006639 C.2        1 UNL1     0.0882
     62 H         -0.845152   -2.168401   3.477561 H        1 UNL1     0.0365
     63 H         -1.650489   -4.028377   3.726864 H        1 UNL1     0.0576
     64 H         -4.628419   -4.066879   2.934889 H        1 UNL1     0.0615
     65 H         -2.639249   -6.299162   3.83931 H        1 UNL1     0.0622
     66 H         5.502571   -0.963083   1.909996 H        1 UNL1     0.0645
     67 H         4.645907   -0.19045   0.129723 H        1 UNL1     0.0362
     68 H         4.637267   1.844421   0.951428 H        1 UNL1     0.0741
     69 H         2.474984   3.146152   1.761624 H        1 UNL1     0.0359
     70 H         1.051899   2.331983   3.281975 H        1 UNL1     0.0600
     71 H         -0.508162   1.833588   1.859821 H        1 UNL1     0.0348
     72 H         -0.537766   -0.250267   3.120264 H        1 UNL1     0.0602
     73 H         3.76433   -2.605346   1.990258 H        1 UNL1     0.0628
     74 H         3.480237   -1.470502   4.83491 H        1 UNL1     0.1022
     75 H         -6.529911   -7.366441   3.138221 H        1 UNL1     0.0279
     76 H         -5.909396   -7.686268   1.567879 H        1 UNL1     0.0279
     77 H         -5.821053   -8.909521   2.898723 H        1 UNL1     0.0279
     78 H         -3.486001   -8.687762   1.172786 H        1 UNL1     0.1553
     79 H         -3.386682   -6.844005   0.453816 H        1 UNL1     0.1484
     80 H         -0.884061   -4.629162   -1.354734 H        1 UNL1     0.0317
     81 H         -0.539486   -6.298565   -0.925448 H        1 UNL1     0.0317
     82 H         -2.873431   -6.995705   -1.525783 H        1 UNL1     0.0428
     83 H         -2.035625   -6.223151   -2.853543 H        1 UNL1     0.0428
     84 H         -4.779569   -3.811328   -0.672484 H        1 UNL1     0.0428
     85 H         -4.638179   -5.459728   -0.170579 H        1 UNL1     0.0428
     86 H         -3.380649   -3.761866   1.156349 H        1 UNL1     0.0317
     87 H         -2.446957   -3.264402   -0.178978 H        1 UNL1     0.0317
     88 H         -4.794506   -6.282541   -2.91403 H        1 UNL1     0.0429
     89 H         -5.359007   -4.61197   -2.831778 H        1 UNL1     0.0429
     90 H         -3.816433   -3.919213   -4.554343 H        1 UNL1     0.0308
     91 H         -2.322544   -6.54641   -4.018964 H        1 UNL1     0.0233
     92 H         -2.00158   -5.495284   -5.42168 H        1 UNL1     0.0233
     93 H         -1.698671   -4.91611   -3.797671 H        1 UNL1     0.0233
     94 H         -4.091312   -5.797616   -6.333393 H        1 UNL1     0.0233
     95 H         -5.087232   -6.576885   -5.094357 H        1 UNL1     0.0233
     96 H         -5.526559   -4.964057   -5.702443 H        1 UNL1     0.0233
     97 H         4.452295   -8.887386   4.408996 H        1 UNL1     0.0280
     98 H         4.276387   -7.672357   5.645907 H        1 UNL1     0.0280
     99 H         3.47858   -9.261162   5.843221 H        1 UNL1     0.0280
     100 H         1.771294   -10.678531   3.509542 H        1 UNL1     0.2922
     101 H         -1.428616   -0.809253   5.159041 H        1 UNL1     0.0236
     102 H         -3.15519   -1.310629   4.97567 H        1 UNL1     0.0236
     103 H         -2.53891   0.111964   4.193415 H        1 UNL1     0.0236
     104 H         -2.097552   1.220873   2.284335 H        1 UNL1     0.2098
     105 H         0.168385   1.713823   -0.212707 H        1 UNL1     0.0234
     106 H         1.549252   0.650866   0.180259 H        1 UNL1     0.0234
     107 H         0.0   0.0   0.0 H        1 UNL1     0.0234
     108 H         1.007873   -0.008339   3.891605 H        1 UNL1     0.2098
     109 H         2.850834   -2.076728   0.752603 H        1 UNL1     0.0234
     110 H         1.794055   -0.716521   0.256761 H        1 UNL1     0.0234
     111 H         3.037726   -1.287653   -0.799617 H        1 UNL1     0.0234
     112 H         3.697013   5.340327   -0.854481 H        1 UNL1     0.0342
     113 H         4.552531   4.287038   0.327428 H        1 UNL1     0.0342
     114 H         4.821883   4.086581   -1.406134 H        1 UNL1     0.0342
     115 H         3.641618   3.683462   3.545926 H        1 UNL1     0.0234
     116 H         4.162739   2.037473   3.92001 H        1 UNL1     0.0234
     117 H         4.888901   2.997738   2.61455 H        1 UNL1     0.0234
     118 H         4.862813   -4.109934   2.420563 H        1 UNL1     0.0309
     119 H         4.301587   -5.804752   2.276754 H        1 UNL1     0.0309
     120 H         3.456149   -4.486876   1.495348 H        1 UNL1     0.0309
     121 H         5.389991   0.415838   5.151163 H        1 UNL1     0.0524
     122 H         5.804702   -1.103175   4.346508 H        1 UNL1     0.0524
     123 H         6.594704   0.409352   3.834747 H        1 UNL1     0.0524
@<TRIPOS>BOND
     1     1     2    1
     2     1    42    1
     3     2     3    2
     4     3     4    1
     5     4     5    2
     6     5     7    1
     7     6    75    1
     8     6    76    1
     9     6    77    1
    10     7     9   am
    11     9    10    1
    12    10    11    2
    13    10    43    1
    14    11    14    1
    15    11    15    1
    16    12    13   ar
    17    12    27   ar
    18    12    43    1
    19    13    14    1
    20    13    30   ar
    21    14    17    2
    22    15    16    1
    23    16    17    1
    24    16    18    1
    25    16    22    1
    26    18    19    1
    27    19    20    1
    28    20    21    1
    29    21    22    1
    30    23    24    1
    31    23    88    1
    32    23    89    1
    33    24    25    1
    34    24    26    1
    35    24    90    1
    36    25    91    1
    37    25    92    1
    38    25    93    1
    39    26    94    1
    40    26    95    1
    41    26    96    1
    42    27    28   ar
    43    28    29   ar
    44    29    30   ar
    45    29    31    1
    46    30    33    1
    47    31    32    1
    48    32    33    1
    49    32    35    1
    50    34    97    1
    51    34    98    1
    52    34    99    1
    53    35    61    1
    54    36    37    1
    55    36    60    1
    56    37    38    1
    57    38    39    1
    58    39    40    1
    59    40    41    1
    60    41    42    1
    61    45   100    1
    62    47   101    1
    63    47   102    1
    64    47   103    1
    65    48   104    1
    66    49   105    1
    67    49   106    1
    68    49   107    1
    69    50   108    1
    70    51    59    1
    71    52   109    1
    72    52   110    1
    73    52   111    1
    74    53    54    1
    75    54    55    2
    76    54    56    1
    77    56   112    1
    78    56   113    1
    79    56   114    1
    80    57   115    1
    81    57   116    1
    82    57   117    1
    83    58   118    1
    84    58   119    1
    85    58   120    1
    86    59   121    1
    87    59   122    1
    88    59   123    1
    89    60    61    2
    90     1    47    1
    91     1    62    1
    92     2    63    1
    93     3    64    1
    94     4    65    1
    95     5     6    1
    96     7     8    2
    97     9    78    1
    98    15    79    1
    99    18    80    1
   100    18    81    1
   101    19    82    1
   102    19    83    1
   103    20    23    1
   104    21    84    1
   105    21    85    1
   106    22    86    1
   107    22    87    1
   108    27    45    1
   109    28    34    1
   110    32    58    1
   111    33    46    2
   112    36    51    1
   113    36    66    1
   114    37    52    1
   115    37    67    1
   116    38    53    1
   117    38    68    1
   118    42    48    1
   119    42    72    1
   120    43    44    2
   121    60    73    1
   122    61    74    1
   123    39    69    1
   124    39    57    1
   125    40    70    1
   126    40    50    1
   127    41    71    1
   128    41    49    1
