@<TRIPOS>MOLECULE
*****
 123 128 0 0 0
SMALL
GASTEIGER

@<TRIPOS>ATOM
     1 C         5.313661   1.137234   0.515511 C.3        1 UNL1     0.0009
     2 C         6.881613   1.60509   -0.356083 C.2        1 UNL1     -0.0787
     3 C         8.145192   1.230853   -0.955551 C.2        1 UNL1     -0.0649
     4 C         9.229328   2.21929   -1.800536 C.2        1 UNL1     -0.0542
     5 C         10.304593   2.240229   -2.722732 C.2        1 UNL1     0.0115
     6 C         11.335178   1.35127   -3.471709 C.3        1 UNL1     -0.0348
     7 C         10.654351   3.613349   -3.477184 C.2        1 UNL1     0.2441
     8 O         11.592343   4.329457   -3.154869 O.2        1 UNL1     -0.2702
     9 N         9.97486   3.807281   -4.692434 N.am        1 UNL1     -0.2772
     10 C         8.765539   4.425925   -4.473014 C.2        1 UNL1     0.1049
     11 C         7.766226   3.640101   -4.115135 C.2        1 UNL1     0.0801
     12 C         7.714631   6.364642   -3.292209 C.ar        1 UNL1     0.0753
     13 C         6.771788   5.428566   -2.759839 C.ar        1 UNL1     0.0305
     14 C         6.688953   4.057937   -3.259406 C.2        1 UNL1     0.0924
     15 N         7.674098   2.299261   -4.128815 N.pl3        1 UNL1     -0.3170
     16 C         6.316691   1.94876   -3.805011 C.3        1 UNL1     0.1275
     17 N         5.822357   3.095325   -2.957221 N.2        1 UNL1     -0.2557
     18 C         5.513982   2.003747   -5.101288 C.3        1 UNL1     0.0016
     19 C         6.172789   1.087897   -6.120494 C.3        1 UNL1     0.0026
     20 N         6.205711   -0.264696   -5.581573 N.3        1 UNL1     -0.3018
     21 C         6.904184   -0.407477   -4.302465 C.3        1 UNL1     0.0026
     22 C         6.22306   0.51765   -3.292463 C.3        1 UNL1     0.0016
     23 C         6.535861   -1.261792   -6.580294 C.3        1 UNL1     0.0012
     24 C         5.37794   -1.430191   -7.576594 C.3        1 UNL1     -0.0339
     25 C         5.593338   -0.578369   -8.838362 C.3        1 UNL1     -0.0615
     26 C         5.194196   -2.898647   -7.918143 C.3        1 UNL1     -0.0615
     27 C         7.707153   7.700347   -2.897297 C.ar        1 UNL1     0.1347
     28 C         6.783211   8.223555   -2.010374 C.ar        1 UNL1     0.0342
     29 C         5.895719   7.273316   -1.462133 C.ar        1 UNL1     0.1435
     30 C         5.914659   5.924952   -1.820987 C.ar        1 UNL1     0.0774
     31 O         4.86796   7.644859   -0.667983 O.3        1 UNL1     -0.4436
     32 C         3.95835   6.534994   -0.709001 C.3        1 UNL1     0.3143
     33 C         4.808031   5.340401   -1.092673 C.2        1 UNL1     0.2504
     34 C         6.555169   9.683571   -1.733876 C.3        1 UNL1     -0.0327
     35 O         3.501365   6.309049   0.630165 O.2        1 UNL1     -0.4528
     36 C         -0.003428   4.887566   0.307832 C.3        1 UNL1     0.0854
     37 C         -0.489631   3.600861   -0.463867 C.3        1 UNL1     0.0236
     38 C         -1.305615   2.546363   0.427171 C.3        1 UNL1     0.1131
     39 C         -0.706057   2.052918   1.805326 C.3        1 UNL1     0.0200
     40 C         0.907789   1.649483   1.92854 C.3        1 UNL1     0.0661
     41 C         1.755383   0.613426   0.886531 C.3        1 UNL1     0.0091
     42 C         3.511662   0.634421   0.356961 C.3        1 UNL1     0.0661
     43 C         8.643432   5.885819   -4.345925 C.2        1 UNL1     0.2131
     44 O         9.200709   6.623913   -5.138009 O.2        1 UNL1     -0.2851
     45 O         8.687593   8.535665   -3.428729 O.3        1 UNL1     -0.5056
     46 O         4.624561   4.171556   -0.835778 O.2        1 UNL1     -0.2836
     47 C         5.601744   0.810968   2.005658 C.3        1 UNL1     -0.0566
     48 O         3.722133   -0.812502   0.604413 O.3        1 UNL1     -0.3909
     49 C         0.922964   0.381908   -0.354828 C.3        1 UNL1     -0.0577
     50 O         1.689419   2.791659   2.215265 O.3        1 UNL1     -0.3910
     51 O         -0.188519   4.874485   1.70533 O.3        1 UNL1     -0.3753
     52 C         0.540713   3.149819   -1.5501 C.3        1 UNL1     -0.0564
     53 O         -2.048873   1.524234   -0.382239 O.3        1 UNL1     -0.4608
     54 C         -2.489416   0.311514   0.079455 C.2        1 UNL1     0.3042
     55 O         -2.076759   -0.803252   -0.238111 O.2        1 UNL1     -0.2512
     56 C         -3.558431   0.419961   1.129293 C.3        1 UNL1     0.0332
     57 C         -1.336946   2.963169   2.959274 C.3        1 UNL1     -0.0567
     58 C         2.962547   6.827713   -1.855396 C.3        1 UNL1     0.0210
     59 C         -0.353534   6.160877   2.300167 C.3        1 UNL1     0.0372
     60 C         1.415276   5.267161   0.06628 C.2        1 UNL1     -0.0208
     61 C         2.366877   5.64411   0.92133 C.2        1 UNL1     0.0882
     62 H         5.002732   2.188307   0.479736 H        1 UNL1     0.0365
     63 H         6.788437   2.692982   -0.372784 H        1 UNL1     0.0576
     64 H         8.443983   0.184962   -1.055262 H        1 UNL1     0.0615
     65 H         8.890249   3.23325   -1.571639 H        1 UNL1     0.0622
     66 H         -0.609098   5.704643   -0.108815 H        1 UNL1     0.0645
     67 H         -1.278965   3.975228   -1.138673 H        1 UNL1     0.0362
     68 H         -2.176546   3.164861   0.692619 H        1 UNL1     0.0741
     69 H         -1.202393   1.135451   2.092229 H        1 UNL1     0.0359
     70 H         0.890246   1.080862   2.877973 H        1 UNL1     0.0600
     71 H         1.622106   -0.348306   1.419696 H        1 UNL1     0.0348
     72 H         3.464477   1.238121   1.274912 H        1 UNL1     0.0602
     73 H         1.587385   5.327722   -0.979645 H        1 UNL1     0.0628
     74 H         2.290801   5.558033   2.005784 H        1 UNL1     0.1022
     75 H         11.195323   0.276719   -3.201866 H        1 UNL1     0.0279
     76 H         11.261213   1.331879   -4.556708 H        1 UNL1     0.0279
     77 H         12.368768   1.5257   -3.138592 H        1 UNL1     0.0279
     78 H         9.783821   2.905964   -5.125111 H        1 UNL1     0.1553
     79 H         8.274586   1.705217   -4.670534 H        1 UNL1     0.1484
     80 H         4.481335   1.696967   -4.895639 H        1 UNL1     0.0317
     81 H         5.465714   3.027158   -5.488526 H        1 UNL1     0.0317
     82 H         7.183048   1.433239   -6.385126 H        1 UNL1     0.0428
     83 H         5.585512   1.143613   -7.037583 H        1 UNL1     0.0428
     84 H         6.845732   -1.415798   -3.88094 H        1 UNL1     0.0428
     85 H         7.982601   -0.222306   -4.402696 H        1 UNL1     0.0428
     86 H         6.670885   0.289578   -2.343029 H        1 UNL1     0.0317
     87 H         5.176241   0.219213   -3.157548 H        1 UNL1     0.0317
     88 H         7.421442   -0.91542   -7.128989 H        1 UNL1     0.0429
     89 H         6.800317   -2.220032   -6.114877 H        1 UNL1     0.0429
     90 H         4.443348   -1.114834   -7.097741 H        1 UNL1     0.0308
     91 H         6.534369   -0.833673   -9.334732 H        1 UNL1     0.0233
     92 H         4.768464   -0.71436   -9.54171 H        1 UNL1     0.0233
     93 H         5.631886   0.494921   -8.616104 H        1 UNL1     0.0233
     94 H         4.505358   -3.006614   -8.76294 H        1 UNL1     0.0233
     95 H         6.153174   -3.337942   -8.206834 H        1 UNL1     0.0233
     96 H         4.790751   -3.458258   -7.069594 H        1 UNL1     0.0233
     97 H         5.747659   9.842845   -1.025506 H        1 UNL1     0.0280
     98 H         7.439087   10.164658   -1.295126 H        1 UNL1     0.0280
     99 H         6.2985   10.201259   -2.672607 H        1 UNL1     0.0280
     100 H         8.356666   9.310738   -3.847505 H        1 UNL1     0.2922
     101 H         4.668467   0.578918   2.518303 H        1 UNL1     0.0236
     102 H         6.164486   1.592809   2.514607 H        1 UNL1     0.0236
     103 H         6.216806   -0.097312   2.119321 H        1 UNL1     0.0236
     104 H         4.096782   -0.90679   1.502031 H        1 UNL1     0.2098
     105 H         0.712488   1.280991   -0.928553 H        1 UNL1     0.0234
     106 H         1.292382   -0.406652   -1.010291 H        1 UNL1     0.0234
     107 H         0.0   -0.0   0.0 H        1 UNL1     0.0234
     108 H         1.614472   3.393996   1.450189 H        1 UNL1     0.2098
     109 H         1.524381   2.916758   -1.119064 H        1 UNL1     0.0234
     110 H         0.192074   2.300718   -2.147779 H        1 UNL1     0.0234
     111 H         0.720469   3.940613   -2.290558 H        1 UNL1     0.0234
     112 H         -3.86065   -0.57925   1.457297 H        1 UNL1     0.0342
     113 H         -3.242162   1.029579   1.974386 H        1 UNL1     0.0342
     114 H         -4.434562   0.905592   0.677937 H        1 UNL1     0.0342
     115 H         -2.431539   2.875435   2.996108 H        1 UNL1     0.0234
     116 H         -0.955941   2.741116   3.958062 H        1 UNL1     0.0234
     117 H         -1.215792   4.045589   2.781424 H        1 UNL1     0.0234
     118 H         2.143762   7.494619   -1.533162 H        1 UNL1     0.0309
     119 H         3.442063   7.252397   -2.74304 H        1 UNL1     0.0309
     120 H         2.437005   5.928688   -2.195491 H        1 UNL1     0.0309
     121 H         0.560647   6.726363   2.121686 H        1 UNL1     0.0524
     122 H         -1.186688   6.726091   1.850249 H        1 UNL1     0.0524
     123 H         -0.530536   6.061576   3.367361 H        1 UNL1     0.0524
@<TRIPOS>BOND
     1     1     2    1
     2     1    42    1
     3     2     3    2
     4     3     4    1
     5     4     5    2
     6     5     7    1
     7     6    75    1
     8     6    76    1
     9     6    77    1
    10     7     9   am
    11     9    10    1
    12    10    11    2
    13    10    43    1
    14    11    14    1
    15    11    15    1
    16    12    13   ar
    17    12    27   ar
    18    12    43    1
    19    13    14    1
    20    13    30   ar
    21    14    17    2
    22    15    16    1
    23    16    17    1
    24    16    18    1
    25    16    22    1
    26    18    19    1
    27    19    20    1
    28    20    21    1
    29    21    22    1
    30    23    24    1
    31    23    88    1
    32    23    89    1
    33    24    25    1
    34    24    26    1
    35    24    90    1
    36    25    91    1
    37    25    92    1
    38    25    93    1
    39    26    94    1
    40    26    95    1
    41    26    96    1
    42    27    28   ar
    43    28    29   ar
    44    29    30   ar
    45    29    31    1
    46    30    33    1
    47    31    32    1
    48    32    33    1
    49    32    35    1
    50    34    97    1
    51    34    98    1
    52    34    99    1
    53    35    61    1
    54    36    37    1
    55    36    60    1
    56    37    38    1
    57    38    39    1
    58    39    40    1
    59    40    41    1
    60    41    42    1
    61    45   100    1
    62    47   101    1
    63    47   102    1
    64    47   103    1
    65    48   104    1
    66    49   105    1
    67    49   106    1
    68    49   107    1
    69    50   108    1
    70    51    59    1
    71    52   109    1
    72    52   110    1
    73    52   111    1
    74    53    54    1
    75    54    55    2
    76    54    56    1
    77    56   112    1
    78    56   113    1
    79    56   114    1
    80    57   115    1
    81    57   116    1
    82    57   117    1
    83    58   118    1
    84    58   119    1
    85    58   120    1
    86    59   121    1
    87    59   122    1
    88    59   123    1
    89    60    61    2
    90     1    47    1
    91     1    62    1
    92     2    63    1
    93     3    64    1
    94     4    65    1
    95     5     6    1
    96     7     8    2
    97     9    78    1
    98    15    79    1
    99    18    80    1
   100    18    81    1
   101    19    82    1
   102    19    83    1
   103    20    23    1
   104    21    84    1
   105    21    85    1
   106    22    86    1
   107    22    87    1
   108    27    45    1
   109    28    34    1
   110    32    58    1
   111    33    46    2
   112    36    51    1
   113    36    66    1
   114    37    52    1
   115    37    67    1
   116    38    53    1
   117    38    68    1
   118    42    48    1
   119    42    72    1
   120    43    44    2
   121    60    73    1
   122    61    74    1
   123    39    69    1
   124    39    57    1
   125    40    70    1
   126    40    50    1
   127    41    71    1
   128    41    49    1
