@<TRIPOS>MOLECULE
*****
 123 128 0 0 0
SMALL
GASTEIGER

@<TRIPOS>ATOM
     1 C         3.61957   3.344189   1.877223 C.3        1 UNL1     0.0009
     2 C         4.373861   4.995394   1.500922 C.2        1 UNL1     -0.0787
     3 C         5.517078   5.795449   1.114899 C.2        1 UNL1     -0.0649
     4 C         5.561736   7.455386   0.784792 C.2        1 UNL1     -0.0542
     5 C         6.285345   8.493384   0.147588 C.2        1 UNL1     0.0115
     6 C         7.62686   8.842886   -0.553488 C.3        1 UNL1     -0.0348
     7 C         5.541704   9.881915   -0.162203 C.2        1 UNL1     0.2441
     8 O         5.700326   10.887511   0.516135 O.2        1 UNL1     -0.2702
     9 N         4.901103   9.940892   -1.412124 N.am        1 UNL1     -0.2772
     10 C         3.614933   9.461539   -1.315632 C.2        1 UNL1     0.1049
     11 C         3.476348   8.149713   -1.379881 C.2        1 UNL1     0.0801
     12 C         1.522676   9.654754   0.041742 C.ar        1 UNL1     0.0753
     13 C         1.534027   8.225577   0.118776 C.ar        1 UNL1     0.0305
     14 C         2.43853   7.422299   -0.700778 C.2        1 UNL1     0.0924
     15 N         4.362969   7.203752   -1.734267 N.pl3        1 UNL1     -0.3170
     16 C         3.662563   5.94879   -1.803232 C.3        1 UNL1     0.1275
     17 N         2.517756   6.101119   -0.831669 N.2        1 UNL1     -0.2557
     18 C         3.032196   5.85838   -3.189654 C.3        1 UNL1     0.0016
     19 C         4.125582   6.025252   -4.232847 C.3        1 UNL1     0.0026
     20 N         5.119742   4.978594   -4.040022 N.3        1 UNL1     -0.3018
     21 C         5.73869   4.945823   -2.713297 C.3        1 UNL1     0.0026
     22 C         4.622821   4.772947   -1.681385 C.3        1 UNL1     0.0016
     23 C         6.039808   4.862618   -5.153876 C.3        1 UNL1     0.0012
     24 C         5.323959   4.287446   -6.386147 C.3        1 UNL1     -0.0339
     25 C         6.264426   3.402635   -7.220827 C.3        1 UNL1     -0.0615
     26 C         4.077936   3.53137   -5.958883 C.3        1 UNL1     -0.0615
     27 C         0.577263   10.407399   0.734445 C.ar        1 UNL1     0.1347
     28 C         -0.426763   9.843533   1.50128 C.ar        1 UNL1     0.0342
     29 C         -0.366068   8.437343   1.601826 C.ar        1 UNL1     0.1435
     30 C         0.59713   7.672486   0.942686 C.ar        1 UNL1     0.0774
     31 O         -1.337406   7.732571   2.222154 O.3        1 UNL1     -0.4436
     32 C         -1.190868   6.39503   1.721772 C.3        1 UNL1     0.3143
     33 C         0.247593   6.302293   1.254392 C.2        1 UNL1     0.2504
     34 C         -1.618102   10.567259   2.064336 C.3        1 UNL1     -0.0327
     35 O         -1.325221   5.505785   2.837319 O.2        1 UNL1     -0.4528
     36 C         -2.790402   2.295642   1.438634 C.3        1 UNL1     0.0854
     37 C         -2.234969   1.362354   0.294961 C.3        1 UNL1     0.0236
     38 C         -2.043002   -0.174626   0.710397 C.3        1 UNL1     0.1131
     39 C         -1.24279   -0.538409   2.025536 C.3        1 UNL1     0.0200
     40 C         0.182354   0.24719   2.391919 C.3        1 UNL1     0.0661
     41 C         1.493528   0.469565   1.338836 C.3        1 UNL1     0.0091
     42 C         2.704514   1.842407   1.219587 C.3        1 UNL1     0.0661
     43 C         2.495252   10.304896   -0.871314 C.2        1 UNL1     0.2131
     44 O         2.347722   11.425424   -1.324513 O.2        1 UNL1     -0.2851
     45 O         0.663924   11.794994   0.642201 O.3        1 UNL1     -0.5056
     46 O         0.953274   5.321474   1.177823 O.2        1 UNL1     -0.2836
     47 C         4.084068   2.844309   3.27162 C.3        1 UNL1     -0.0566
     48 O         3.884761   0.947108   1.151954 O.3        1 UNL1     -0.3909
     49 C         1.04672   0.151656   -0.070699 C.3        1 UNL1     -0.0577
     50 O         -0.07227   1.440556   3.105199 O.3        1 UNL1     -0.3910
     51 O         -2.883237   1.712665   2.718849 O.3        1 UNL1     -0.3753
     52 C         -1.211274   2.110074   -0.620414 C.3        1 UNL1     -0.0564
     53 O         -1.857121   -1.094571   -0.460703 O.3        1 UNL1     -0.4608
     54 C         -1.022168   -2.180702   -0.493929 C.2        1 UNL1     0.3042
     55 O         0.079469   -2.259566   -1.036159 O.2        1 UNL1     -0.2512
     56 C         -1.537504   -3.359375   0.281875 C.3        1 UNL1     0.0332
     57 C         -2.309826   -0.733386   3.200948 C.3        1 UNL1     -0.0567
     58 C         -2.122915   6.283203   0.492824 C.3        1 UNL1     0.0210
     59 C         -4.213636   1.548627   3.20772 C.3        1 UNL1     0.0372
     60 C         -2.065831   3.584935   1.605613 C.2        1 UNL1     -0.0208
     61 C         -1.646134   4.203954   2.709884 C.2        1 UNL1     0.0882
     62 H         2.653847   3.841317   2.028735 H        1 UNL1     0.0365
     63 H         3.535706   5.658169   1.726079 H        1 UNL1     0.0576
     64 H         6.467842   5.33707   0.833751 H        1 UNL1     0.0615
     65 H         4.607879   7.82384   1.171937 H        1 UNL1     0.0622
     66 H         -3.805238   2.560677   1.110135 H        1 UNL1     0.0645
     67 H         -3.070081   1.292827   -0.423588 H        1 UNL1     0.0362
     68 H         -3.089884   -0.439817   0.923085 H        1 UNL1     0.0741
     69 H         -0.935223   -1.574161   1.970505 H        1 UNL1     0.0359
     70 H         0.592783   -0.446326   3.150631 H        1 UNL1     0.0600
     71 H         2.093111   -0.428884   1.58429 H        1 UNL1     0.0348
     72 H         2.261293   1.915333   2.223357 H        1 UNL1     0.0602
     73 H         -2.008745   4.077605   0.666856 H        1 UNL1     0.0628
     74 H         -1.616715   3.747009   3.699617 H        1 UNL1     0.1022
     75 H         8.26417   7.931742   -0.65687 H        1 UNL1     0.0279
     76 H         7.559878   9.199488   -1.578875 H        1 UNL1     0.0279
     77 H         8.271258   9.489748   0.059718 H        1 UNL1     0.0279
     78 H         5.397641   9.353691   -2.078998 H        1 UNL1     0.1553
     79 H         5.196501   7.39085   -2.260718 H        1 UNL1     0.1484
     80 H         2.527032   4.890158   -3.290267 H        1 UNL1     0.0317
     81 H         2.263954   6.627905   -3.321133 H        1 UNL1     0.0317
     82 H         4.586421   7.022808   -4.183632 H        1 UNL1     0.0428
     83 H         3.654033   5.959308   -5.213837 H        1 UNL1     0.0428
     84 H         6.421774   4.103039   -2.568651 H        1 UNL1     0.0428
     85 H         6.364529   5.830615   -2.532224 H        1 UNL1     0.0428
     86 H         5.119179   4.619961   -0.741059 H        1 UNL1     0.0317
     87 H         4.100329   3.823386   -1.850008 H        1 UNL1     0.0317
     88 H         6.406399   5.867739   -5.400124 H        1 UNL1     0.0429
     89 H         6.915584   4.257466   -4.886329 H        1 UNL1     0.0429
     90 H         4.972014   5.113615   -7.015267 H        1 UNL1     0.0308
     91 H         6.827505   2.711551   -6.58644 H        1 UNL1     0.0233
     92 H         5.700589   2.830948   -7.961685 H        1 UNL1     0.0233
     93 H         7.000509   3.989804   -7.783187 H        1 UNL1     0.0233
     94 H         3.78642   2.814821   -6.734392 H        1 UNL1     0.0233
     95 H         4.276901   2.971868   -5.040552 H        1 UNL1     0.0233
     96 H         3.239291   4.210985   -5.783482 H        1 UNL1     0.0233
     97 H         -1.949386   10.136765   3.004631 H        1 UNL1     0.0280
     98 H         -1.399111   11.621767   2.277203 H        1 UNL1     0.0280
     99 H         -2.453807   10.515998   1.347353 H        1 UNL1     0.0280
     100 H         1.523277   12.144917   0.799327 H        1 UNL1     0.2922
     101 H         3.393267   2.08577   3.639136 H        1 UNL1     0.0236
     102 H         4.226417   3.650538   3.990449 H        1 UNL1     0.0236
     103 H         5.060656   2.334166   3.224481 H        1 UNL1     0.0236
     104 H         3.722745   0.199078   1.759549 H        1 UNL1     0.2098
     105 H         1.219501   0.950473   -0.787532 H        1 UNL1     0.0234
     106 H         1.41758   -0.795027   -0.463357 H        1 UNL1     0.0234
     107 H         0.0   -0.0   0.0 H        1 UNL1     0.0234
     108 H         0.757984   1.954681   3.11626 H        1 UNL1     0.2098
     109 H         -1.626147   3.038872   -1.036259 H        1 UNL1     0.0234
     110 H         -0.262026   2.325426   -0.118125 H        1 UNL1     0.0234
     111 H         -0.9218   1.499967   -1.486393 H        1 UNL1     0.0234
     112 H         -1.393193   -4.277224   -0.296116 H        1 UNL1     0.0342
     113 H         -1.072563   -3.438577   1.263405 H        1 UNL1     0.0342
     114 H         -2.61705   -3.22396   0.434871 H        1 UNL1     0.0342
     115 H         -3.100881   -1.442611   2.920914 H        1 UNL1     0.0234
     116 H         -1.876209   -1.079616   4.141241 H        1 UNL1     0.0234
     117 H         -2.901909   0.173598   3.412514 H        1 UNL1     0.0234
     118 H         -2.98694   5.623665   0.686411 H        1 UNL1     0.0309
     119 H         -2.48527   7.253518   0.138719 H        1 UNL1     0.0309
     120 H         -1.63217   5.811203   -0.365367 H        1 UNL1     0.0309
     121 H         -4.166675   1.544421   4.296359 H        1 UNL1     0.0524
     122 H         -4.875058   2.378226   2.907179 H        1 UNL1     0.0524
     123 H         -4.634034   0.614129   2.847062 H        1 UNL1     0.0524
@<TRIPOS>BOND
     1     1     2    1
     2     1    42    1
     3     2     3    2
     4     3     4    1
     5     4     5    2
     6     5     7    1
     7     6    75    1
     8     6    76    1
     9     6    77    1
    10     7     9   am
    11     9    10    1
    12    10    11    2
    13    10    43    1
    14    11    14    1
    15    11    15    1
    16    12    13   ar
    17    12    27   ar
    18    12    43    1
    19    13    14    1
    20    13    30   ar
    21    14    17    2
    22    15    16    1
    23    16    17    1
    24    16    18    1
    25    16    22    1
    26    18    19    1
    27    19    20    1
    28    20    21    1
    29    21    22    1
    30    23    24    1
    31    23    88    1
    32    23    89    1
    33    24    25    1
    34    24    26    1
    35    24    90    1
    36    25    91    1
    37    25    92    1
    38    25    93    1
    39    26    94    1
    40    26    95    1
    41    26    96    1
    42    27    28   ar
    43    28    29   ar
    44    29    30   ar
    45    29    31    1
    46    30    33    1
    47    31    32    1
    48    32    33    1
    49    32    35    1
    50    34    97    1
    51    34    98    1
    52    34    99    1
    53    35    61    1
    54    36    37    1
    55    36    60    1
    56    37    38    1
    57    38    39    1
    58    39    40    1
    59    40    41    1
    60    41    42    1
    61    45   100    1
    62    47   101    1
    63    47   102    1
    64    47   103    1
    65    48   104    1
    66    49   105    1
    67    49   106    1
    68    49   107    1
    69    50   108    1
    70    51    59    1
    71    52   109    1
    72    52   110    1
    73    52   111    1
    74    53    54    1
    75    54    55    2
    76    54    56    1
    77    56   112    1
    78    56   113    1
    79    56   114    1
    80    57   115    1
    81    57   116    1
    82    57   117    1
    83    58   118    1
    84    58   119    1
    85    58   120    1
    86    59   121    1
    87    59   122    1
    88    59   123    1
    89    60    61    2
    90     1    47    1
    91     1    62    1
    92     2    63    1
    93     3    64    1
    94     4    65    1
    95     5     6    1
    96     7     8    2
    97     9    78    1
    98    15    79    1
    99    18    80    1
   100    18    81    1
   101    19    82    1
   102    19    83    1
   103    20    23    1
   104    21    84    1
   105    21    85    1
   106    22    86    1
   107    22    87    1
   108    27    45    1
   109    28    34    1
   110    32    58    1
   111    33    46    2
   112    36    51    1
   113    36    66    1
   114    37    52    1
   115    37    67    1
   116    38    53    1
   117    38    68    1
   118    42    48    1
   119    42    72    1
   120    43    44    2
   121    60    73    1
   122    61    74    1
   123    39    69    1
   124    39    57    1
   125    40    70    1
   126    40    50    1
   127    41    71    1
   128    41    49    1
