@<TRIPOS>MOLECULE
*****
 123 128 0 0 0
SMALL
GASTEIGER

@<TRIPOS>ATOM
     1 C         0.240501   0.025669   4.121506 C.3        1 UNL1     0.0009
     2 C         -0.826846   -0.88601   5.332558 C.2        1 UNL1     -0.0787
     3 C         -1.972872   -0.92444   6.21641 C.2        1 UNL1     -0.0649
     4 C         -2.575802   -2.24897   7.081542 C.2        1 UNL1     -0.0542
     5 C         -3.70701   -2.784527   7.745338 C.2        1 UNL1     0.0115
     6 C         -5.129041   -2.450018   8.273782 C.3        1 UNL1     -0.0348
     7 C         -3.763529   -4.362693   8.033761 C.2        1 UNL1     0.2441
     8 O         -3.531369   -4.846995   9.132888 O.2        1 UNL1     -0.2702
     9 N         -4.350089   -5.12777   7.01065 N.am        1 UNL1     -0.2772
     10 C         -3.402665   -5.496515   6.08343 C.2        1 UNL1     0.1049
     11 C         -3.114208   -4.59973   5.157799 C.2        1 UNL1     0.0801
     12 C         -1.124218   -6.506616   5.869641 C.ar        1 UNL1     0.0753
     13 C         -0.795065   -5.393541   5.032185 C.ar        1 UNL1     0.0305
     14 C         -1.820202   -4.474018   4.543696 C.2        1 UNL1     0.0924
     15 N         -3.742209   -3.45507   4.838589 N.pl3        1 UNL1     -0.3170
     16 C         -3.127574   -2.934376   3.646382 C.3        1 UNL1     0.1275
     17 N         -1.713451   -3.45981   3.689932 N.2        1 UNL1     -0.2557
     18 C         -3.796676   -3.617339   2.457447 C.3        1 UNL1     0.0016
     19 C         -5.296623   -3.384261   2.543617 C.3        1 UNL1     0.0026
     20 N         -5.54844   -1.949855   2.533725 N.3        1 UNL1     -0.3018
     21 C         -4.894597   -1.196434   3.605739 C.3        1 UNL1     0.0026
     22 C         -3.388546   -1.441312   3.497382 C.3        1 UNL1     0.0016
     23 C         -6.942978   -1.623635   2.31127 C.3        1 UNL1     0.0012
     24 C         -7.347532   -1.946736   0.864308 C.3        1 UNL1     -0.0339
     25 C         -8.390366   -0.948212   0.335627 C.3        1 UNL1     -0.0615
     26 C         -6.115854   -1.991095   -0.023263 C.3        1 UNL1     -0.0615
     27 C         -0.162271   -7.446563   6.231963 C.ar        1 UNL1     0.1347
     28 C         1.147225   -7.401082   5.787888 C.ar        1 UNL1     0.0342
     29 C         1.460123   -6.2699   5.004506 C.ar        1 UNL1     0.1435
     30 C         0.51563   -5.300995   4.663366 C.ar        1 UNL1     0.0774
     31 O         2.664098   -6.138232   4.40608 O.3        1 UNL1     -0.4436
     32 C         2.448285   -5.173019   3.36557 C.3        1 UNL1     0.3143
     33 C         1.233238   -4.381484   3.805283 C.2        1 UNL1     0.2504
     34 C         2.163991   -8.49972   5.926745 C.3        1 UNL1     -0.0327
     35 O         3.562063   -4.271661   3.382984 O.2        1 UNL1     -0.4528
     36 C         3.993811   -3.081676   -0.19551 C.3        1 UNL1     0.0854
     37 C         2.955684   -2.358195   -1.136993 C.3        1 UNL1     0.0236
     38 C         3.457062   -0.964009   -1.750677 C.3        1 UNL1     0.1131
     39 C         4.056084   0.144597   -0.794416 C.3        1 UNL1     0.0200
     40 C         3.321975   0.489528   0.663166 C.3        1 UNL1     0.0661
     41 C         1.671541   0.806302   0.894106 C.3        1 UNL1     0.0091
     42 C         0.579229   0.445942   2.323231 C.3        1 UNL1     0.0661
     43 C         -2.544079   -6.676205   6.266496 C.2        1 UNL1     0.2131
     44 O         -3.020919   -7.738256   6.623438 O.2        1 UNL1     -0.2851
     45 O         -0.55456   -8.474373   7.087038 O.3        1 UNL1     -0.5056
     46 O         0.935961   -3.2411   3.527786 O.2        1 UNL1     -0.2836
     47 C         1.130635   1.061164   4.860014 C.3        1 UNL1     -0.0566
     48 O         -0.0156   1.803946   2.356716 O.3        1 UNL1     -0.3909
     49 C         0.9173   0.398117   -0.351687 C.3        1 UNL1     -0.0577
     50 O         3.79542   -0.371717   1.678955 O.3        1 UNL1     -0.3910
     51 O         5.150087   -2.343306   0.128936 O.3        1 UNL1     -0.3753
     52 C         1.484136   -2.572345   -0.653635 C.3        1 UNL1     -0.0564
     53 O         2.619389   -0.476299   -2.896439 O.3        1 UNL1     -0.4608
     54 C         2.297496   0.832225   -3.145594 C.2        1 UNL1     0.3042
     55 O         1.22638   1.393922   -2.919666 O.2        1 UNL1     -0.2512
     56 C         3.436456   1.635486   -3.706181 C.3        1 UNL1     0.0332
     57 C         5.647434   -0.015391   -0.807996 C.3        1 UNL1     -0.0567
     58 C         2.087758   -5.974677   2.093213 C.3        1 UNL1     0.0210
     59 C         6.34708   -2.79616   -0.501935 C.3        1 UNL1     0.0372
     60 C         3.433445   -3.587343   1.087242 C.2        1 UNL1     -0.0208
     61 C         3.910472   -3.507385   2.33014 C.2        1 UNL1     0.0882
     62 H         0.84694   -0.880385   4.003145 H        1 UNL1     0.0365
     63 H         -0.273074   -1.822395   5.427369 H        1 UNL1     0.0576
     64 H         -2.677693   -0.092128   6.276345 H        1 UNL1     0.0615
     65 H         -1.769968   -2.985803   7.02504 H        1 UNL1     0.0622
     66 H         4.304854   -3.971879   -0.760166 H        1 UNL1     0.0645
     67 H         2.921711   -2.995035   -2.038015 H        1 UNL1     0.0362
     68 H         4.307464   -1.322332   -2.35063 H        1 UNL1     0.0741
     69 H         4.027558   1.097603   -1.305663 H        1 UNL1     0.0359
     70 H         3.792243   1.466129   0.887127 H        1 UNL1     0.0600
     71 H         1.67098   1.909667   0.796413 H        1 UNL1     0.0348
     72 H         1.607947   0.403737   2.70959 H        1 UNL1     0.0602
     73 H         2.579617   -4.184762   0.883973 H        1 UNL1     0.0628
     74 H         4.744213   -2.872081   2.630975 H        1 UNL1     0.1022
     75 H         -5.419002   -1.41024   7.987741 H        1 UNL1     0.0279
     76 H         -5.948062   -3.041055   7.870114 H        1 UNL1     0.0279
     77 H         -5.172352   -2.393003   9.371313 H        1 UNL1     0.0279
     78 H         -5.051842   -4.571338   6.526911 H        1 UNL1     0.1553
     79 H         -4.689998   -3.249269   5.096027 H        1 UNL1     0.1484
     80 H         -3.380388   -3.207812   1.529138 H        1 UNL1     0.0317
     81 H         -3.580965   -4.691152   2.450764 H        1 UNL1     0.0317
     82 H         -5.731331   -3.856298   3.436993 H        1 UNL1     0.0428
     83 H         -5.754196   -3.88107   1.687546 H        1 UNL1     0.0428
     84 H         -5.034314   -0.11365   3.529135 H        1 UNL1     0.0428
     85 H         -5.305902   -1.449351   4.592744 H        1 UNL1     0.0428
     86 H         -2.935   -0.77474   4.207287 H        1 UNL1     0.0317
     87 H         -3.017798   -1.074801   2.532337 H        1 UNL1     0.0317
     88 H         -7.549794   -2.237931   2.989288 H        1 UNL1     0.0429
     89 H         -7.150825   -0.57392   2.555552 H        1 UNL1     0.0429
     90 H         -7.779033   -2.954074   0.828399 H        1 UNL1     0.0308
     91 H         -8.109033   0.082611   0.570914 H        1 UNL1     0.0233
     92 H         -8.508904   -1.049706   -0.745694 H        1 UNL1     0.0233
     93 H         -9.384167   -1.113567   0.769046 H        1 UNL1     0.0233
     94 H         -6.410787   -2.007101   -1.078059 H        1 UNL1     0.0233
     95 H         -5.503814   -1.100026   0.142164 H        1 UNL1     0.0233
     96 H         -5.509592   -2.878385   0.179544 H        1 UNL1     0.0233
     97 H         2.546235   -8.825217   4.963847 H        1 UNL1     0.0280
     98 H         3.040562   -8.18153   6.506085 H        1 UNL1     0.0280
     99 H         1.703734   -9.367438   6.427069 H        1 UNL1     0.0280
     100 H         -1.022455   -8.189845   7.852375 H        1 UNL1     0.2922
     101 H         1.980636   1.329017   4.23279 H        1 UNL1     0.0236
     102 H         1.44138   0.7303   5.850443 H        1 UNL1     0.0236
     103 H         0.601052   2.012562   5.034875 H        1 UNL1     0.0236
     104 H         0.695967   2.442686   2.155089 H        1 UNL1     0.2098
     105 H         0.686917   1.218828   -1.026348 H        1 UNL1     0.0234
     106 H         1.362504   -0.430225   -0.902657 H        1 UNL1     0.0234
     107 H         0.0   -0.0   0.0 H        1 UNL1     0.0234
     108 H         4.599532   -0.808361   1.337612 H        1 UNL1     0.2098
     109 H         1.200033   -3.633896   -0.643229 H        1 UNL1     0.0234
     110 H         1.285042   -2.130109   0.328471 H        1 UNL1     0.0234
     111 H         0.763628   -2.07833   -1.319039 H        1 UNL1     0.0234
     112 H         3.120163   2.671393   -3.861749 H        1 UNL1     0.0342
     113 H         4.321497   1.588024   -3.073493 H        1 UNL1     0.0342
     114 H         3.704105   1.21446   -4.685091 H        1 UNL1     0.0342
     115 H         6.156157   0.953564   -0.710449 H        1 UNL1     0.0234
     116 H         6.03452   -0.669832   -0.024466 H        1 UNL1     0.0234
     117 H         6.045796   -0.368864   -1.774591 H        1 UNL1     0.0234
     118 H         2.888179   -5.929556   1.33407 H        1 UNL1     0.0309
     119 H         1.848208   -7.022711   2.299231 H        1 UNL1     0.0309
     120 H         1.218769   -5.562428   1.568795 H        1 UNL1     0.0309
     121 H         7.184654   -2.500125   0.129087 H        1 UNL1     0.0524
     122 H         6.378078   -3.893978   -0.6013 H        1 UNL1     0.0524
     123 H         6.444372   -2.350034   -1.487632 H        1 UNL1     0.0524
@<TRIPOS>BOND
     1     1     2    1
     2     1    42    1
     3     2     3    2
     4     3     4    1
     5     4     5    2
     6     5     7    1
     7     6    75    1
     8     6    76    1
     9     6    77    1
    10     7     9   am
    11     9    10    1
    12    10    11    2
    13    10    43    1
    14    11    14    1
    15    11    15    1
    16    12    13   ar
    17    12    27   ar
    18    12    43    1
    19    13    14    1
    20    13    30   ar
    21    14    17    2
    22    15    16    1
    23    16    17    1
    24    16    18    1
    25    16    22    1
    26    18    19    1
    27    19    20    1
    28    20    21    1
    29    21    22    1
    30    23    24    1
    31    23    88    1
    32    23    89    1
    33    24    25    1
    34    24    26    1
    35    24    90    1
    36    25    91    1
    37    25    92    1
    38    25    93    1
    39    26    94    1
    40    26    95    1
    41    26    96    1
    42    27    28   ar
    43    28    29   ar
    44    29    30   ar
    45    29    31    1
    46    30    33    1
    47    31    32    1
    48    32    33    1
    49    32    35    1
    50    34    97    1
    51    34    98    1
    52    34    99    1
    53    35    61    1
    54    36    37    1
    55    36    60    1
    56    37    38    1
    57    38    39    1
    58    39    40    1
    59    40    41    1
    60    41    42    1
    61    45   100    1
    62    47   101    1
    63    47   102    1
    64    47   103    1
    65    48   104    1
    66    49   105    1
    67    49   106    1
    68    49   107    1
    69    50   108    1
    70    51    59    1
    71    52   109    1
    72    52   110    1
    73    52   111    1
    74    53    54    1
    75    54    55    2
    76    54    56    1
    77    56   112    1
    78    56   113    1
    79    56   114    1
    80    57   115    1
    81    57   116    1
    82    57   117    1
    83    58   118    1
    84    58   119    1
    85    58   120    1
    86    59   121    1
    87    59   122    1
    88    59   123    1
    89    60    61    2
    90     1    47    1
    91     1    62    1
    92     2    63    1
    93     3    64    1
    94     4    65    1
    95     5     6    1
    96     7     8    2
    97     9    78    1
    98    15    79    1
    99    18    80    1
   100    18    81    1
   101    19    82    1
   102    19    83    1
   103    20    23    1
   104    21    84    1
   105    21    85    1
   106    22    86    1
   107    22    87    1
   108    27    45    1
   109    28    34    1
   110    32    58    1
   111    33    46    2
   112    36    51    1
   113    36    66    1
   114    37    52    1
   115    37    67    1
   116    38    53    1
   117    38    68    1
   118    42    48    1
   119    42    72    1
   120    43    44    2
   121    60    73    1
   122    61    74    1
   123    39    69    1
   124    39    57    1
   125    40    70    1
   126    40    50    1
   127    41    71    1
   128    41    49    1
