@<TRIPOS>MOLECULE
*****
 123 128 0 0 0
SMALL
GASTEIGER

@<TRIPOS>ATOM
     1 C         1.421638   -1.204002   -4.443046 C.3        1 UNL1     0.0009
     2 C         3.017184   -1.017108   -5.368432 C.2        1 UNL1     -0.0787
     3 C         3.776097   -0.445572   -6.460881 C.2        1 UNL1     -0.0649
     4 C         5.438488   -0.576509   -6.753571 C.2        1 UNL1     -0.0542
     5 C         6.546702   -0.008625   -7.42918 C.2        1 UNL1     0.0115
     6 C         6.964966   1.037278   -8.498978 C.3        1 UNL1     -0.0348
     7 C         8.029483   -0.390776   -6.947196 C.2        1 UNL1     0.2441
     8 O         8.735416   -1.194845   -7.540202 O.2        1 UNL1     -0.2702
     9 N         8.56056   0.449465   -5.953161 N.am        1 UNL1     -0.2772
     10 C         8.21247   -0.006675   -4.702525 C.2        1 UNL1     0.1049
     11 C         7.015856   0.343949   -4.267327 C.2        1 UNL1     0.0801
     12 C         8.167148   -2.066598   -3.284075 C.ar        1 UNL1     0.0753
     13 C         6.798493   -1.751613   -3.008075 C.ar        1 UNL1     0.0305
     14 C         6.218286   -0.464859   -3.3858 C.2        1 UNL1     0.0924
     15 N         6.151253   1.250769   -4.75381 N.pl3        1 UNL1     -0.3170
     16 C         5.067987   1.372996   -3.814742 C.3        1 UNL1     0.1275
     17 N         5.012057   0.03142   -3.125709 N.2        1 UNL1     -0.2557
     18 C         5.502375   2.377325   -2.751571 C.3        1 UNL1     0.0016
     19 C         5.886883   3.67769   -3.43917 C.3        1 UNL1     0.0026
     20 N         4.737426   4.169553   -4.186063 N.3        1 UNL1     -0.3018
     21 C         4.208074   3.246159   -5.191796 C.3        1 UNL1     0.0026
     22 C         3.823956   1.948642   -4.478495 C.3        1 UNL1     0.0016
     23 C         4.89743   5.540158   -4.629327 C.3        1 UNL1     0.0012
     24 C         4.834969   6.503682   -3.43372 C.3        1 UNL1     -0.0339
     25 C         5.958365   7.551573   -3.496667 C.3        1 UNL1     -0.0615
     26 C         3.465332   7.156129   -3.361676 C.3        1 UNL1     -0.0615
     27 C         8.745572   -3.243747   -2.81518 C.ar        1 UNL1     0.1347
     28 C         8.069376   -4.160282   -2.02983 C.ar        1 UNL1     0.0342
     29 C         6.709485   -3.853048   -1.811961 C.ar        1 UNL1     0.1435
     30 C         6.106758   -2.69542   -2.305761 C.ar        1 UNL1     0.0774
     31 O         5.945507   -4.590212   -0.976537 O.3        1 UNL1     -0.4436
     32 C         4.83785   -3.737226   -0.650371 C.3        1 UNL1     0.3143
     33 C         4.754204   -2.743021   -1.790885 C.2        1 UNL1     0.2504
     34 C         8.688636   -5.310478   -1.285743 C.3        1 UNL1     -0.0327
     35 O         3.65153   -4.538845   -0.707856 O.2        1 UNL1     -0.4528
     36 C         1.2467   -3.020378   1.805933 C.3        1 UNL1     0.0854
     37 C         0.686758   -1.548073   1.885336 C.3        1 UNL1     0.0236
     38 C         -0.912678   -1.433464   1.905701 C.3        1 UNL1     0.1131
     39 C         -1.767962   -2.188761   0.810125 C.3        1 UNL1     0.0200
     40 C         -1.298194   -2.168737   -0.790298 C.3        1 UNL1     0.0661
     41 C         -0.88096   -0.790029   -1.686228 C.3        1 UNL1     0.0091
     42 C         0.321547   -0.579603   -3.055571 C.3        1 UNL1     0.0661
     43 C         8.9755   -1.055961   -4.010326 C.2        1 UNL1     0.2131
     44 O         10.191551   -1.009688   -3.967713 O.2        1 UNL1     -0.2851
     45 O         10.069964   -3.49634   -3.166775 O.3        1 UNL1     -0.5056
     46 O         3.784741   -2.142366   -2.197345 O.2        1 UNL1     -0.2836
     47 C         0.447489   -2.123206   -5.227953 C.3        1 UNL1     -0.0566
     48 O         -0.619851   0.174223   -3.918493 O.3        1 UNL1     -0.3909
     49 C         -0.67175   0.366044   -0.733746 C.3        1 UNL1     -0.0577
     50 O         -0.384391   -3.21339   -1.057482 O.3        1 UNL1     -0.3910
     51 O         0.289811   -4.032488   1.588152 O.3        1 UNL1     -0.3753
     52 C         1.5822   -0.541449   1.09171 C.3        1 UNL1     -0.0564
     53 O         -1.412698   -0.083538   2.329969 O.3        1 UNL1     -0.4608
     54 C         -2.654292   0.427017   2.054815 C.2        1 UNL1     0.3042
     55 O         -2.944412   1.268177   1.20504 O.2        1 UNL1     -0.2512
     56 C         -3.752368   -0.186535   2.876093 C.3        1 UNL1     0.0332
     57 C         -2.224879   -3.588249   1.435294 C.3        1 UNL1     -0.0567
     58 C         5.231941   -2.983085   0.640944 C.3        1 UNL1     0.0210
     59 C         0.706004   -5.342916   1.9695 C.3        1 UNL1     0.0372
     60 C         2.327616   -3.228904   0.804286 C.2        1 UNL1     -0.0208
     61 C         2.503937   -4.205651   -0.086569 C.2        1 UNL1     0.0882
     62 H         1.939327   -1.843371   -3.717844 H        1 UNL1     0.0365
     63 H         3.653082   -1.716015   -4.821044 H        1 UNL1     0.0576
     64 H         3.338785   0.292227   -7.137282 H        1 UNL1     0.0615
     65 H         5.756972   -1.385294   -6.090308 H        1 UNL1     0.0622
     66 H         1.708623   -3.193353   2.788151 H        1 UNL1     0.0645
     67 H         0.943447   -1.218368   2.907082 H        1 UNL1     0.0362
     68 H         -1.122535   -1.956323   2.85127 H        1 UNL1     0.0741
     69 H         -2.754684   -1.746697   0.773162 H        1 UNL1     0.0359
     70 H         -2.240523   -2.496171   -1.269738 H        1 UNL1     0.0600
     71 H         -1.867431   -0.536662   -2.1217 H        1 UNL1     0.0348
     72 H         0.107576   -1.656981   -3.002768 H        1 UNL1     0.0602
     73 H         3.091647   -2.508266   0.959804 H        1 UNL1     0.0628
     74 H         1.747782   -4.947285   -0.346275 H        1 UNL1     0.1022
     75 H         6.330302   0.938934   -9.412523 H        1 UNL1     0.0279
     76 H         6.8318   2.083437   -8.232729 H        1 UNL1     0.0279
     77 H         7.967384   0.847678   -8.909964 H        1 UNL1     0.0279
     78 H         8.175725   1.386201   -6.055653 H        1 UNL1     0.1553
     79 H         6.412637   1.988822   -5.381417 H        1 UNL1     0.1484
     80 H         4.678476   2.527121   -2.043392 H        1 UNL1     0.0317
     81 H         6.347991   1.992164   -2.171712 H        1 UNL1     0.0317
     82 H         6.759763   3.548355   -4.095878 H        1 UNL1     0.0428
     83 H         6.195043   4.378966   -2.663091 H        1 UNL1     0.0428
     84 H         3.298196   3.606131   -5.682054 H        1 UNL1     0.0428
     85 H         4.914739   3.094124   -6.019339 H        1 UNL1     0.0428
     86 H         3.32091   1.350883   -5.2158 H        1 UNL1     0.0317
     87 H         3.041643   2.146849   -3.735664 H        1 UNL1     0.0317
     88 H         5.883917   5.63327   -5.102052 H        1 UNL1     0.0429
     89 H         4.150478   5.803235   -5.389345 H        1 UNL1     0.0429
     90 H         4.943205   5.931093   -2.504936 H        1 UNL1     0.0308
     91 H         6.234488   7.776995   -4.531096 H        1 UNL1     0.0233
     92 H         5.654142   8.474507   -2.997417 H        1 UNL1     0.0233
     93 H         6.871193   7.216203   -2.989609 H        1 UNL1     0.0233
     94 H         3.553758   8.237561   -3.511745 H        1 UNL1     0.0233
     95 H         2.819939   6.758087   -4.149707 H        1 UNL1     0.0233
     96 H         2.989611   6.979435   -2.392946 H        1 UNL1     0.0233
     97 H         9.030775   -6.09284   -1.956624 H        1 UNL1     0.0280
     98 H         9.570212   -5.003092   -0.708166 H        1 UNL1     0.0280
     99 H         7.946952   -5.746248   -0.596466 H        1 UNL1     0.0280
     100 H         10.707366   -3.141816   -2.572086 H        1 UNL1     0.2922
     101 H         0.408125   -3.104973   -4.75653 H        1 UNL1     0.0236
     102 H         0.68175   -2.188558   -6.289949 H        1 UNL1     0.0236
     103 H         -0.590828   -1.753398   -5.19146 H        1 UNL1     0.0236
     104 H         -1.109247   -0.475998   -4.459487 H        1 UNL1     0.2098
     105 H         -0.222075   1.24581   -1.187193 H        1 UNL1     0.0234
     106 H         -1.553419   0.64677   -0.157741 H        1 UNL1     0.0234
     107 H         0.0   0.0   0.0 H        1 UNL1     0.0234
     108 H         0.386779   -3.080774   -0.473121 H        1 UNL1     0.2098
     109 H         1.658554   -0.802655   0.026979 H        1 UNL1     0.0234
     110 H         1.252888   0.498457   1.191171 H        1 UNL1     0.0234
     111 H         2.613094   -0.53156   1.470001 H        1 UNL1     0.0234
     112 H         -4.715866   0.248402   2.593519 H        1 UNL1     0.0342
     113 H         -3.772537   -1.271705   2.787538 H        1 UNL1     0.0342
     114 H         -3.569037   0.057968   3.931447 H        1 UNL1     0.0342
     115 H         -2.717265   -3.459273   2.409003 H        1 UNL1     0.0234
     116 H         -2.902735   -4.159159   0.797623 H        1 UNL1     0.0234
     117 H         -1.380751   -4.244509   1.708627 H        1 UNL1     0.0234
     118 H         4.867422   -1.940909   0.640064 H        1 UNL1     0.0309
     119 H         4.887359   -3.482262   1.552145 H        1 UNL1     0.0309
     120 H         6.316433   -2.871238   0.748059 H        1 UNL1     0.0309
     121 H         1.090436   -5.83902   1.078742 H        1 UNL1     0.0524
     122 H         1.518098   -5.323502   2.715264 H        1 UNL1     0.0524
     123 H         -0.133032   -5.900242   2.376319 H        1 UNL1     0.0524
@<TRIPOS>BOND
     1     1     2    1
     2     1    42    1
     3     2     3    2
     4     3     4    1
     5     4     5    2
     6     5     7    1
     7     6    75    1
     8     6    76    1
     9     6    77    1
    10     7     9   am
    11     9    10    1
    12    10    11    2
    13    10    43    1
    14    11    14    1
    15    11    15    1
    16    12    13   ar
    17    12    27   ar
    18    12    43    1
    19    13    14    1
    20    13    30   ar
    21    14    17    2
    22    15    16    1
    23    16    17    1
    24    16    18    1
    25    16    22    1
    26    18    19    1
    27    19    20    1
    28    20    21    1
    29    21    22    1
    30    23    24    1
    31    23    88    1
    32    23    89    1
    33    24    25    1
    34    24    26    1
    35    24    90    1
    36    25    91    1
    37    25    92    1
    38    25    93    1
    39    26    94    1
    40    26    95    1
    41    26    96    1
    42    27    28   ar
    43    28    29   ar
    44    29    30   ar
    45    29    31    1
    46    30    33    1
    47    31    32    1
    48    32    33    1
    49    32    35    1
    50    34    97    1
    51    34    98    1
    52    34    99    1
    53    35    61    1
    54    36    37    1
    55    36    60    1
    56    37    38    1
    57    38    39    1
    58    39    40    1
    59    40    41    1
    60    41    42    1
    61    45   100    1
    62    47   101    1
    63    47   102    1
    64    47   103    1
    65    48   104    1
    66    49   105    1
    67    49   106    1
    68    49   107    1
    69    50   108    1
    70    51    59    1
    71    52   109    1
    72    52   110    1
    73    52   111    1
    74    53    54    1
    75    54    55    2
    76    54    56    1
    77    56   112    1
    78    56   113    1
    79    56   114    1
    80    57   115    1
    81    57   116    1
    82    57   117    1
    83    58   118    1
    84    58   119    1
    85    58   120    1
    86    59   121    1
    87    59   122    1
    88    59   123    1
    89    60    61    2
    90     1    47    1
    91     1    62    1
    92     2    63    1
    93     3    64    1
    94     4    65    1
    95     5     6    1
    96     7     8    2
    97     9    78    1
    98    15    79    1
    99    18    80    1
   100    18    81    1
   101    19    82    1
   102    19    83    1
   103    20    23    1
   104    21    84    1
   105    21    85    1
   106    22    86    1
   107    22    87    1
   108    27    45    1
   109    28    34    1
   110    32    58    1
   111    33    46    2
   112    36    51    1
   113    36    66    1
   114    37    52    1
   115    37    67    1
   116    38    53    1
   117    38    68    1
   118    42    48    1
   119    42    72    1
   120    43    44    2
   121    60    73    1
   122    61    74    1
   123    39    69    1
   124    39    57    1
   125    40    70    1
   126    40    50    1
   127    41    71    1
   128    41    49    1
