@<TRIPOS>MOLECULE
*****
 123 128 0 0 0
SMALL
GASTEIGER

@<TRIPOS>ATOM
     1 C         4.369502   -0.705413   2.517547 C.3        1 UNL1     0.0009
     2 C         5.779764   -1.891815   2.719162 C.2        1 UNL1     -0.0787
     3 C         6.342515   -3.083943   3.317651 C.2        1 UNL1     -0.0649
     4 C         7.831534   -3.814914   2.97874 C.2        1 UNL1     -0.0542
     5 C         8.584352   -5.011757   3.067687 C.2        1 UNL1     0.0115
     6 C         8.611244   -6.436277   3.686832 C.3        1 UNL1     -0.0348
     7 C         9.883453   -5.183112   2.140345 C.2        1 UNL1     0.2441
     8 O         11.023845   -5.041511   2.559844 O.2        1 UNL1     -0.2702
     9 N         9.637251   -5.760752   0.882621 N.am        1 UNL1     -0.2772
     10 C         9.310432   -4.789874   -0.036023 C.2        1 UNL1     0.1049
     11 C         8.049863   -4.395997   -0.043084 C.2        1 UNL1     0.0801
     12 C         10.04882   -2.571433   -0.9252 C.ar        1 UNL1     0.0753
     13 C         8.704051   -2.128117   -0.716209 C.ar        1 UNL1     0.0305
     14 C         7.631088   -3.065433   -0.391799 C.2        1 UNL1     0.0924
     15 N         6.973857   -4.932473   0.557692 N.pl3        1 UNL1     -0.3170
     16 C         5.811669   -4.222888   0.092867 C.3        1 UNL1     0.1275
     17 N         6.325097   -2.849106   -0.263277 N.2        1 UNL1     -0.2557
     18 C         5.383198   -4.868673   -1.221316 C.3        1 UNL1     0.0016
     19 C         5.158639   -6.353402   -0.983108 C.3        1 UNL1     0.0026
     20 N         4.132835   -6.513392   0.038242 N.3        1 UNL1     -0.3018
     21 C         4.427597   -5.872071   1.321282 C.3        1 UNL1     0.0026
     22 C         4.645037   -4.380808   1.059086 C.3        1 UNL1     0.0016
     23 C         3.631963   -7.870574   0.126722 C.3        1 UNL1     0.0012
     24 C         2.282372   -7.899816   0.861233 C.3        1 UNL1     -0.0339
     25 C         1.17227   -8.48791   -0.025264 C.3        1 UNL1     -0.0615
     26 C         2.417027   -8.662208   2.167911 C.3        1 UNL1     -0.0615
     27 C         11.040746   -1.691579   -1.351883 C.ar        1 UNL1     0.1347
     28 C         10.800392   -0.359798   -1.639353 C.ar        1 UNL1     0.0342
     29 C         9.480268   0.065546   -1.379511 C.ar        1 UNL1     0.1435
     30 C         8.48475   -0.796229   -0.917442 C.ar        1 UNL1     0.0774
     31 O         9.061099   1.305921   -1.712339 O.3        1 UNL1     -0.4436
     32 C         7.629302   1.207768   -1.746905 C.3        1 UNL1     0.3143
     33 C         7.292014   0.023112   -0.864273 C.2        1 UNL1     0.2504
     34 C         11.747799   0.576724   -2.336093 C.3        1 UNL1     -0.0327
     35 O         7.106624   2.373594   -1.09813 O.2        1 UNL1     -0.4528
     36 C         3.760963   3.071703   -2.749581 C.3        1 UNL1     0.0854
     37 C         2.500086   2.133494   -2.88178 C.3        1 UNL1     0.0236
     38 C         1.133638   2.754105   -2.316621 C.3        1 UNL1     0.1131
     39 C         1.094167   3.369422   -0.85988 C.3        1 UNL1     0.0200
     40 C         1.83361   2.581043   0.410601 C.3        1 UNL1     0.0661
     41 C         1.641694   0.943821   0.810952 C.3        1 UNL1     0.0091
     42 C         2.821933   -0.244455   1.559576 C.3        1 UNL1     0.0661
     43 C         10.332709   -4.018478   -0.758693 C.2        1 UNL1     0.2131
     44 O         11.286913   -4.579864   -1.265723 O.2        1 UNL1     -0.2851
     45 O         12.333552   -2.193387   -1.487083 O.3        1 UNL1     -0.5056
     46 O         6.276062   -0.186296   -0.239897 O.2        1 UNL1     -0.2836
     47 C         4.249564   0.207138   3.767685 C.3        1 UNL1     -0.0566
     48 O         1.851904   -0.75343   2.559127 O.3        1 UNL1     -0.3909
     49 C         0.974452   0.233576   -0.345696 C.3        1 UNL1     -0.0577
     50 O         3.196714   2.943827   0.500362 O.3        1 UNL1     -0.3910
     51 O         3.57427   4.253061   -2.003277 O.3        1 UNL1     -0.3753
     52 C         2.872433   0.627469   -2.686345 C.3        1 UNL1     -0.0564
     53 O         -0.092413   2.011804   -2.761722 O.3        1 UNL1     -0.4608
     54 C         -1.32707   2.090078   -2.172293 C.2        1 UNL1     0.3042
     55 O         -1.923746   1.200087   -1.567535 O.2        1 UNL1     -0.2512
     56 C         -1.949171   3.454734   -2.258415 C.3        1 UNL1     0.0332
     57 C         1.32722   4.945936   -0.995767 C.3        1 UNL1     -0.0567
     58 C         7.249371   0.866509   -3.206605 C.3        1 UNL1     0.0210
     59 C         2.35399   4.943206   -2.268757 C.3        1 UNL1     0.0372
     60 C         4.981787   2.412267   -2.211162 C.2        1 UNL1     -0.0208
     61 C         5.852423   2.825717   -1.289318 C.2        1 UNL1     0.0882
     62 H         4.965497   -0.151804   1.782007 H        1 UNL1     0.0365
     63 H         6.544618   -1.40409   2.111222 H        1 UNL1     0.0576
     64 H         5.748009   -3.737096   3.96035 H        1 UNL1     0.0615
     65 H         8.370405   -3.055262   2.406 H        1 UNL1     0.0622
     66 H         4.003079   3.355982   -3.783317 H        1 UNL1     0.0645
     67 H         2.297423   2.108044   -3.966603 H        1 UNL1     0.0362
     68 H         1.025075   3.611317   -2.998474 H        1 UNL1     0.0741
     69 H         0.063985   3.428621   -0.534876 H        1 UNL1     0.0359
     70 H         1.352814   3.099189   1.262318 H        1 UNL1     0.0600
     71 H         0.804303   1.018083   1.532214 H        1 UNL1     0.0348
     72 H         3.211947   0.757239   1.791553 H        1 UNL1     0.0602
     73 H         5.181862   1.534672   -2.77423 H        1 UNL1     0.0628
     74 H         5.693949   3.680426   -0.630837 H        1 UNL1     0.1022
     75 H         9.620538   -6.898101   3.56404 H        1 UNL1     0.0279
     76 H         8.452905   -6.501469   4.760959 H        1 UNL1     0.0279
     77 H         7.978226   -7.149929   3.139393 H        1 UNL1     0.0279
     78 H         8.846998   -6.398942   0.94812 H        1 UNL1     0.1553
     79 H         6.936089   -5.877896   0.891881 H        1 UNL1     0.1484
     80 H         4.470272   -4.377979   -1.579857 H        1 UNL1     0.0317
     81 H         6.143322   -4.721039   -1.995956 H        1 UNL1     0.0317
     82 H         6.088608   -6.864511   -0.693559 H        1 UNL1     0.0428
     83 H         4.855642   -6.794588   -1.933159 H        1 UNL1     0.0428
     84 H         3.608079   -5.93892   2.043592 H        1 UNL1     0.0428
     85 H         5.273859   -6.35109   1.832847 H        1 UNL1     0.0428
     86 H         4.725298   -3.925057   2.028538 H        1 UNL1     0.0317
     87 H         3.732064   -3.936229   0.644445 H        1 UNL1     0.0317
     88 H         3.482656   -8.246734   -0.89382 H        1 UNL1     0.0429
     89 H         4.360565   -8.533767   0.610549 H        1 UNL1     0.0429
     90 H         2.002299   -6.876738   1.138872 H        1 UNL1     0.0308
     91 H         0.179944   -8.244655   0.366166 H        1 UNL1     0.0233
     92 H         1.25591   -8.113651   -1.048271 H        1 UNL1     0.0233
     93 H         1.227909   -9.581073   -0.094074 H        1 UNL1     0.0233
     94 H         1.696925   -9.486989   2.199909 H        1 UNL1     0.0233
     95 H         3.42101   -9.087855   2.250395 H        1 UNL1     0.0233
     96 H         2.237104   -8.012766   3.029202 H        1 UNL1     0.0233
     97 H         12.744093   0.154594   -2.427933 H        1 UNL1     0.0280
     98 H         11.423748   0.807626   -3.35929 H        1 UNL1     0.0280
     99 H         11.822279   1.517537   -1.766516 H        1 UNL1     0.0280
     100 H         12.892575   -2.040047   -0.745732 H        1 UNL1     0.2922
     101 H         3.805383   -0.352811   4.590374 H        1 UNL1     0.0236
     102 H         3.716195   1.136439   3.570451 H        1 UNL1     0.0236
     103 H         5.236071   0.524029   4.145279 H        1 UNL1     0.0236
     104 H         1.576695   0.002158   3.11439 H        1 UNL1     0.2098
     105 H         0.872968   0.836456   -1.244611 H        1 UNL1     0.0234
     106 H         1.400698   -0.73945   -0.589542 H        1 UNL1     0.0234
     107 H         0.0   -0.0   0.0 H        1 UNL1     0.0234
     108 H         3.334696   3.33708   1.383584 H        1 UNL1     0.2098
     109 H         2.014731   -0.038433   -2.855557 H        1 UNL1     0.0234
     110 H         3.713513   0.307521   -3.310815 H        1 UNL1     0.0234
     111 H         3.209323   0.423585   -1.661219 H        1 UNL1     0.0234
     112 H         -2.240711   3.6663   -3.291657 H        1 UNL1     0.0342
     113 H         -2.797067   3.561628   -1.583515 H        1 UNL1     0.0342
     114 H         -1.193378   4.195585   -1.963318 H        1 UNL1     0.0342
     115 H         2.319053   5.245194   -0.629842 H        1 UNL1     0.0234
     116 H         1.225663   5.323475   -2.015178 H        1 UNL1     0.0234
     117 H         0.669502   5.545707   -0.34337 H        1 UNL1     0.0234
     118 H         6.258249   0.384878   -3.275275 H        1 UNL1     0.0309
     119 H         7.271735   1.736218   -3.870915 H        1 UNL1     0.0309
     120 H         7.921539   0.126013   -3.653774 H        1 UNL1     0.0309
     121 H         2.355203   5.855934   -1.67354 H        1 UNL1     0.0524
     122 H         2.261548   5.237442   -3.327491 H        1 UNL1     0.0524
     123 H         1.504537   4.32164   -2.000093 H        1 UNL1     0.0524
@<TRIPOS>BOND
     1     1     2    1
     2     1    42    1
     3     2     3    2
     4     3     4    1
     5     4     5    2
     6     5     7    1
     7     6    75    1
     8     6    76    1
     9     6    77    1
    10     7     9   am
    11     9    10    1
    12    10    11    2
    13    10    43    1
    14    11    14    1
    15    11    15    1
    16    12    13   ar
    17    12    27   ar
    18    12    43    1
    19    13    14    1
    20    13    30   ar
    21    14    17    2
    22    15    16    1
    23    16    17    1
    24    16    18    1
    25    16    22    1
    26    18    19    1
    27    19    20    1
    28    20    21    1
    29    21    22    1
    30    23    24    1
    31    23    88    1
    32    23    89    1
    33    24    25    1
    34    24    26    1
    35    24    90    1
    36    25    91    1
    37    25    92    1
    38    25    93    1
    39    26    94    1
    40    26    95    1
    41    26    96    1
    42    27    28   ar
    43    28    29   ar
    44    29    30   ar
    45    29    31    1
    46    30    33    1
    47    31    32    1
    48    32    33    1
    49    32    35    1
    50    34    97    1
    51    34    98    1
    52    34    99    1
    53    35    61    1
    54    36    37    1
    55    36    60    1
    56    37    38    1
    57    38    39    1
    58    39    40    1
    59    40    41    1
    60    41    42    1
    61    45   100    1
    62    47   101    1
    63    47   102    1
    64    47   103    1
    65    48   104    1
    66    49   105    1
    67    49   106    1
    68    49   107    1
    69    50   108    1
    70    51    59    1
    71    52   109    1
    72    52   110    1
    73    52   111    1
    74    53    54    1
    75    54    55    2
    76    54    56    1
    77    56   112    1
    78    56   113    1
    79    56   114    1
    80    57   115    1
    81    57   116    1
    82    57   117    1
    83    58   118    1
    84    58   119    1
    85    58   120    1
    86    59   121    1
    87    59   122    1
    88    59   123    1
    89    60    61    2
    90     1    47    1
    91     1    62    1
    92     2    63    1
    93     3    64    1
    94     4    65    1
    95     5     6    1
    96     7     8    2
    97     9    78    1
    98    15    79    1
    99    18    80    1
   100    18    81    1
   101    19    82    1
   102    19    83    1
   103    20    23    1
   104    21    84    1
   105    21    85    1
   106    22    86    1
   107    22    87    1
   108    27    45    1
   109    28    34    1
   110    32    58    1
   111    33    46    2
   112    36    51    1
   113    36    66    1
   114    37    52    1
   115    37    67    1
   116    38    53    1
   117    38    68    1
   118    42    48    1
   119    42    72    1
   120    43    44    2
   121    60    73    1
   122    61    74    1
   123    39    69    1
   124    39    57    1
   125    40    70    1
   126    40    50    1
   127    41    71    1
   128    41    49    1
