@<TRIPOS>MOLECULE
*****
 123 128 0 0 0
SMALL
GASTEIGER

@<TRIPOS>ATOM
     1 C         5.005318   2.216763   0.210983 C.3        1 UNL1     0.0009
     2 C         6.396141   2.96046   -0.763471 C.2        1 UNL1     -0.0787
     3 C         7.70251   2.844954   -1.376744 C.2        1 UNL1     -0.0649
     4 C         8.497391   3.976773   -2.353222 C.2        1 UNL1     -0.0542
     5 C         9.519042   4.164932   -3.316499 C.2        1 UNL1     0.0115
     6 C         10.722913   3.481365   -4.021308 C.3        1 UNL1     -0.0348
     7 C         9.509398   5.4995   -4.208589 C.2        1 UNL1     0.2441
     8 O         10.249039   6.449653   -3.992567 O.2        1 UNL1     -0.2702
     9 N         8.782576   5.401069   -5.407836 N.am        1 UNL1     -0.2772
     10 C         7.462564   5.727654   -5.197519 C.2        1 UNL1     0.1049
     11 C         6.69208   4.763281   -4.72788 C.2        1 UNL1     0.0801
     12 C         5.989517   7.462614   -4.159551 C.ar        1 UNL1     0.0753
     13 C         5.313499   6.384293   -3.504698 C.ar        1 UNL1     0.0305
     14 C         5.560013   4.991497   -3.871306 C.2        1 UNL1     0.0924
     15 N         6.930548   3.44549   -4.61348 N.pl3        1 UNL1     -0.3170
     16 C         5.70583   2.811291   -4.203466 C.3        1 UNL1     0.1275
     17 N         4.960497   3.883024   -3.446108 N.2        1 UNL1     -0.2557
     18 C         4.892167   2.540872   -5.46542 C.3        1 UNL1     0.0016
     19 C         5.7376   1.714479   -6.421405 C.3        1 UNL1     0.0026
     20 N         6.109558   0.470743   -5.761257 N.3        1 UNL1     -0.3018
     21 C         6.843354   0.629507   -4.503995 C.3        1 UNL1     0.0026
     22 C         5.973859   1.458539   -3.557116 C.3        1 UNL1     0.0016
     23 C         6.656593   -0.511493   -6.675921 C.3        1 UNL1     0.0012
     24 C         5.558305   -1.053468   -7.604243 C.3        1 UNL1     -0.0339
     25 C         5.615327   -0.38992   -8.990067 C.3        1 UNL1     -0.0615
     26 C         5.660004   -2.565589   -7.70388 C.3        1 UNL1     -0.0615
     27 C         5.662215   8.789418   -3.890137 C.ar        1 UNL1     0.1347
     28 C         4.653549   9.159527   -3.018551 C.ar        1 UNL1     0.0342
     29 C         4.034926   8.082504   -2.348856 C.ar        1 UNL1     0.1435
     30 C         4.37705   6.749853   -2.581691 C.ar        1 UNL1     0.0774
     31 O         2.961141   8.271865   -1.551275 O.3        1 UNL1     -0.4436
     32 C         2.350119   6.976608   -1.452116 C.3        1 UNL1     0.3143
     33 C         3.459579   5.990771   -1.757792 C.2        1 UNL1     0.2504
     34 C         4.079996   10.54116   -2.869463 C.3        1 UNL1     -0.0327
     35 O         1.985101   6.781706   -0.080246 O.2        1 UNL1     -0.4528
     36 C         -1.070409   4.530076   -0.126173 C.3        1 UNL1     0.0854
     37 C         -1.240099   3.093582   -0.754832 C.3        1 UNL1     0.0236
     38 C         -1.758072   1.96744   0.262643 C.3        1 UNL1     0.1131
     39 C         -1.032705   1.77372   1.654974 C.3        1 UNL1     0.0200
     40 C         0.632651   1.786866   1.74908 C.3        1 UNL1     0.0661
     41 C         1.690126   0.887826   0.773845 C.3        1 UNL1     0.0091
     42 C         3.378652   1.279903   0.173379 C.3        1 UNL1     0.0661
     43 C         6.989203   7.119871   -5.201383 C.2        1 UNL1     0.2131
     44 O         7.335452   7.887948   -6.080534 O.2        1 UNL1     -0.2851
     45 O         6.399347   9.779675   -4.536254 O.3        1 UNL1     -0.5056
     46 O         3.572012   4.843909   -1.386418 O.2        1 UNL1     -0.2836
     47 C         5.389723   2.120263   1.71195 C.3        1 UNL1     -0.0566
     48 O         3.940866   -0.041041   0.545051 O.3        1 UNL1     -0.3909
     49 C         0.918683   0.339176   -0.405711 C.3        1 UNL1     -0.0577
     50 O         1.115869   3.10689   1.896593 O.3        1 UNL1     -0.3910
     51 O         -1.222919   4.612193   1.272908 O.3        1 UNL1     -0.3753
     52 C         -0.149319   2.79896   -1.835732 C.3        1 UNL1     -0.0564
     53 O         -2.242332   0.720387   -0.41756 O.3        1 UNL1     -0.4608
     54 C         -2.345246   -0.51506   0.1664 C.2        1 UNL1     0.3042
     55 O         -1.581422   -1.470326   0.032686 O.2        1 UNL1     -0.2512
     56 C         -3.509507   -0.64036   1.107416 C.3        1 UNL1     0.0332
     57 C         -1.847415   2.61491   2.744387 C.3        1 UNL1     -0.0567
     58 C         1.293645   6.903912   -2.579107 C.3        1 UNL1     0.0210
     59 C         -1.657343   5.882937   1.754935 C.3        1 UNL1     0.0372
     60 C         0.208013   5.215388   -0.459556 C.2        1 UNL1     -0.0208
     61 C         1.052863   5.894662   0.317337 C.2        1 UNL1     0.0882
     62 H         4.446146   3.15248   0.090682 H        1 UNL1     0.0365
     63 H         6.03939   3.986271   -0.877094 H        1 UNL1     0.0576
     64 H         8.246346   1.897779   -1.391217 H        1 UNL1     0.0615
     65 H         7.924503   4.896282   -2.205624 H        1 UNL1     0.0622
     66 H         -1.864547   5.130658   -0.591678 H        1 UNL1     0.0645
     67 H         -2.108373   3.196689   -1.428648 H        1 UNL1     0.0362
     68 H         -2.749209   2.380302   0.504954 H        1 UNL1     0.0741
     69 H         -1.28457   0.796824   2.045674 H        1 UNL1     0.0359
     70 H         0.77087   1.328577   2.747041 H        1 UNL1     0.0600
     71 H         1.805245   -0.019422   1.398828 H        1 UNL1     0.0348
     72 H         3.20081   1.942801   1.032596 H        1 UNL1     0.0602
     73 H         0.342291   5.211054   -1.512741 H        1 UNL1     0.0628
     74 H         1.018581   5.901438   1.407298 H        1 UNL1     0.1022
     75 H         10.806394   2.413138   -3.706736 H        1 UNL1     0.0279
     76 H         10.670074   3.403033   -5.104886 H        1 UNL1     0.0279
     77 H         11.692551   3.881261   -3.690271 H        1 UNL1     0.0279
     78 H         8.810516   4.441754   -5.746971 H        1 UNL1     0.1553
     79 H         7.648825   2.963258   -5.121872 H        1 UNL1     0.1484
     80 H         3.96959   2.015604   -5.190259 H        1 UNL1     0.0317
     81 H         4.588436   3.478319   -5.943533 H        1 UNL1     0.0317
     82 H         6.628036   2.265663   -6.757904 H        1 UNL1     0.0428
     83 H         5.139052   1.534705   -7.314977 H        1 UNL1     0.0428
     84 H         7.040514   -0.315759   -3.988814 H        1 UNL1     0.0428
     85 H         7.841842   1.058989   -4.664879 H        1 UNL1     0.0428
     86 H         6.479926   1.441467   -2.609703 H        1 UNL1     0.0317
     87 H         5.034302   0.930836   -3.352521 H        1 UNL1     0.0317
     88 H         7.421083   -0.017816   -7.290033 H        1 UNL1     0.0429
     89 H         7.155295   -1.32596   -6.134892 H        1 UNL1     0.0429
     90 H         4.577738   -0.847925   -7.158762 H        1 UNL1     0.0308
     91 H         6.63967   -0.356244   -9.373068 H        1 UNL1     0.0233
     92 H         4.983819   -0.926882   -9.701741 H        1 UNL1     0.0233
     93 H         5.247627   0.643216   -8.973867 H        1 UNL1     0.0233
     94 H         5.171941   -2.917472   -8.619199 H        1 UNL1     0.0233
     95 H         6.710303   -2.867569   -7.744396 H        1 UNL1     0.0233
     96 H         5.184816   -3.054693   -6.848928 H        1 UNL1     0.0233
     97 H         3.217719   10.555347   -2.209532 H        1 UNL1     0.0280
     98 H         4.802448   11.244495   -2.435137 H        1 UNL1     0.0280
     99 H         3.766123   10.918911   -3.856318 H        1 UNL1     0.0280
     100 H         5.880469   10.447855   -4.948472 H        1 UNL1     0.2922
     101 H         4.517523   1.829071   2.29687 H        1 UNL1     0.0236
     102 H         5.854241   3.028395   2.094708 H        1 UNL1     0.0236
     103 H         6.130576   1.325163   1.899422 H        1 UNL1     0.0236
     104 H         4.254502   0.021148   1.468488 H        1 UNL1     0.2098
     105 H         0.69191   1.073336   -1.174733 H        1 UNL1     0.0234
     106 H         1.348129   -0.55682   -0.853698 H        1 UNL1     0.0234
     107 H         0.0   -0.0   0.0 H        1 UNL1     0.0234
     108 H         0.941504   3.575114   1.057467 H        1 UNL1     0.2098
     109 H         0.869067   2.867031   -1.428342 H        1 UNL1     0.0234
     110 H         -0.282697   1.830045   -2.328842 H        1 UNL1     0.0234
     111 H         -0.189163   3.524443   -2.65916 H        1 UNL1     0.0234
     112 H         -3.521644   -1.639475   1.553475 H        1 UNL1     0.0342
     113 H         -3.499452   0.1307   1.876316 H        1 UNL1     0.0342
     114 H         -4.434444   -0.519477   0.526862 H        1 UNL1     0.0342
     115 H         -2.91797   2.36794   2.734076 H        1 UNL1     0.0234
     116 H         -1.489421   2.481195   3.767133 H        1 UNL1     0.0234
     117 H         -1.876443   3.697601   2.532541 H        1 UNL1     0.0234
     118 H         0.264802   6.997526   -2.189589 H        1 UNL1     0.0309
     119 H         1.449335   7.652052   -3.362848 H        1 UNL1     0.0309
     120 H         1.284766   5.932219   -3.084913 H        1 UNL1     0.0309
     121 H         -1.307375   5.983182   2.781984 H        1 UNL1     0.0524
     122 H         -1.230256   6.71844   1.175651 H        1 UNL1     0.0524
     123 H         -2.741185   5.947576   1.720265 H        1 UNL1     0.0524
@<TRIPOS>BOND
     1     1     2    1
     2     1    42    1
     3     2     3    2
     4     3     4    1
     5     4     5    2
     6     5     7    1
     7     6    75    1
     8     6    76    1
     9     6    77    1
    10     7     9   am
    11     9    10    1
    12    10    11    2
    13    10    43    1
    14    11    14    1
    15    11    15    1
    16    12    13   ar
    17    12    27   ar
    18    12    43    1
    19    13    14    1
    20    13    30   ar
    21    14    17    2
    22    15    16    1
    23    16    17    1
    24    16    18    1
    25    16    22    1
    26    18    19    1
    27    19    20    1
    28    20    21    1
    29    21    22    1
    30    23    24    1
    31    23    88    1
    32    23    89    1
    33    24    25    1
    34    24    26    1
    35    24    90    1
    36    25    91    1
    37    25    92    1
    38    25    93    1
    39    26    94    1
    40    26    95    1
    41    26    96    1
    42    27    28   ar
    43    28    29   ar
    44    29    30   ar
    45    29    31    1
    46    30    33    1
    47    31    32    1
    48    32    33    1
    49    32    35    1
    50    34    97    1
    51    34    98    1
    52    34    99    1
    53    35    61    1
    54    36    37    1
    55    36    60    1
    56    37    38    1
    57    38    39    1
    58    39    40    1
    59    40    41    1
    60    41    42    1
    61    45   100    1
    62    47   101    1
    63    47   102    1
    64    47   103    1
    65    48   104    1
    66    49   105    1
    67    49   106    1
    68    49   107    1
    69    50   108    1
    70    51    59    1
    71    52   109    1
    72    52   110    1
    73    52   111    1
    74    53    54    1
    75    54    55    2
    76    54    56    1
    77    56   112    1
    78    56   113    1
    79    56   114    1
    80    57   115    1
    81    57   116    1
    82    57   117    1
    83    58   118    1
    84    58   119    1
    85    58   120    1
    86    59   121    1
    87    59   122    1
    88    59   123    1
    89    60    61    2
    90     1    47    1
    91     1    62    1
    92     2    63    1
    93     3    64    1
    94     4    65    1
    95     5     6    1
    96     7     8    2
    97     9    78    1
    98    15    79    1
    99    18    80    1
   100    18    81    1
   101    19    82    1
   102    19    83    1
   103    20    23    1
   104    21    84    1
   105    21    85    1
   106    22    86    1
   107    22    87    1
   108    27    45    1
   109    28    34    1
   110    32    58    1
   111    33    46    2
   112    36    51    1
   113    36    66    1
   114    37    52    1
   115    37    67    1
   116    38    53    1
   117    38    68    1
   118    42    48    1
   119    42    72    1
   120    43    44    2
   121    60    73    1
   122    61    74    1
   123    39    69    1
   124    39    57    1
   125    40    70    1
   126    40    50    1
   127    41    71    1
   128    41    49    1
