@<TRIPOS>MOLECULE
*****
 123 128 0 0 0
SMALL
GASTEIGER

@<TRIPOS>ATOM
     1 C         3.663528   0.75956   -4.001673 C.3        1 UNL1     0.0009
     2 C         5.195976   0.114144   -4.821476 C.2        1 UNL1     -0.0787
     3 C         6.626093   0.176826   -5.038004 C.2        1 UNL1     -0.0649
     4 C         7.591861   -0.892772   -5.926604 C.2        1 UNL1     -0.0542
     5 C         8.911416   -1.362575   -6.139058 C.2        1 UNL1     0.0115
     6 C         10.406867   -1.100307   -5.810174 C.3        1 UNL1     -0.0348
     7 C         9.125183   -2.765311   -6.889807 C.2        1 UNL1     0.2441
     8 O         9.457225   -2.847615   -8.064329 O.2        1 UNL1     -0.2702
     9 N         9.160812   -3.887   -6.043229 N.am        1 UNL1     -0.2772
     10 C         7.890684   -4.375534   -5.839684 C.2        1 UNL1     0.1049
     11 C         7.178635   -3.773851   -4.90417 C.2        1 UNL1     0.0801
     12 C         5.806225   -5.046766   -7.048737 C.ar        1 UNL1     0.0753
     13 C         5.0973   -4.208628   -6.130283 C.ar        1 UNL1     0.0305
     14 C         5.746839   -3.649321   -4.946929 C.2        1 UNL1     0.0924
     15 N         7.557488   -2.891109   -3.964082 N.pl3        1 UNL1     -0.3170
     16 C         6.437499   -2.675533   -3.086925 C.3        1 UNL1     0.1275
     17 N         5.226745   -2.942623   -3.947425 N.2        1 UNL1     -0.2557
     18 C         6.464559   -3.783468   -2.038378 C.3        1 UNL1     0.0016
     19 C         7.817631   -3.764155   -1.345259 C.3        1 UNL1     0.0026
     20 N         8.010366   -2.4574   -0.731848 N.3        1 UNL1     -0.3018
     21 C         7.939399   -1.32149   -1.653283 C.3        1 UNL1     0.0026
     22 C         6.570513   -1.357788   -2.334991 C.3        1 UNL1     0.0016
     23 C         9.121284   -2.429511   0.198597 C.3        1 UNL1     0.0012
     24 C         8.78657   -3.238718   1.461493 C.3        1 UNL1     -0.0339
     25 C         9.647254   -4.508984   1.560007 C.3        1 UNL1     -0.0615
     26 C         8.936322   -2.364986   2.69476 C.3        1 UNL1     -0.0615
     27 C         5.151858   -5.67356   -8.10659 C.ar        1 UNL1     0.1347
     28 C         3.789425   -5.569834   -8.32354 C.ar        1 UNL1     0.0342
     29 C         3.120425   -4.700517   -7.435907 C.ar        1 UNL1     0.1435
     30 C         3.769184   -4.037373   -6.393519 C.ar        1 UNL1     0.0774
     31 O         1.775019   -4.579148   -7.448442 O.3        1 UNL1     -0.4436
     32 C         1.448953   -4.024505   -6.165116 C.3        1 UNL1     0.3143
     33 C         2.712822   -3.328873   -5.701497 C.2        1 UNL1     0.2504
     34 C         2.982264   -6.406133   -9.277058 C.3        1 UNL1     -0.0327
     35 O         0.465818   -3.004302   -6.379325 O.2        1 UNL1     -0.4528
     36 C         -1.65049   -2.920697   -3.22935 C.3        1 UNL1     0.0854
     37 C         -1.203878   -2.686746   -1.734918 C.3        1 UNL1     0.0236
     38 C         -1.960981   -1.489745   -0.982767 C.3        1 UNL1     0.1131
     39 C         -2.045234   -0.06394   -1.662657 C.3        1 UNL1     0.0200
     40 C         -0.707139   0.597352   -2.407393 C.3        1 UNL1     0.0661
     41 C         0.846065   0.7171   -1.735955 C.3        1 UNL1     0.0091
     42 C         2.496138   0.652947   -2.535046 C.3        1 UNL1     0.0661
     43 C         7.244799   -5.298256   -6.785078 C.2        1 UNL1     0.2131
     44 O         7.851693   -6.258375   -7.223929 O.2        1 UNL1     -0.2851
     45 O         5.923226   -6.43569   -8.981568 O.3        1 UNL1     -0.5056
     46 O         2.821721   -2.387464   -4.948008 O.2        1 UNL1     -0.2836
     47 C         3.220595   2.093653   -4.66045 C.3        1 UNL1     -0.0566
     48 O         3.011777   1.849524   -1.826923 O.3        1 UNL1     -0.3909
     49 C         0.916017   -0.162964   -0.507912 C.3        1 UNL1     -0.0577
     50 O         -0.620586   0.171647   -3.752387 O.3        1 UNL1     -0.3910
     51 O         -2.520815   -1.952884   -3.770926 O.3        1 UNL1     -0.3753
     52 C         0.322289   -2.961317   -1.533987 C.3        1 UNL1     -0.0564
     53 O         -1.784419   -1.509871   0.50745 O.3        1 UNL1     -0.4608
     54 C         -1.9797   -0.443538   1.345739 C.2        1 UNL1     0.3042
     55 O         -1.17374   0.442407   1.627462 O.2        1 UNL1     -0.2512
     56 C         -3.369438   -0.369823   1.911345 C.3        1 UNL1     0.0332
     57 C         -3.444804   0.02151   -2.432122 C.3        1 UNL1     -0.0567
     58 C         1.16726   -5.223072   -5.229373 C.3        1 UNL1     0.0210
     59 C         -3.866155   -2.391754   -3.953462 C.3        1 UNL1     0.0372
     60 C         -0.534864   -3.086149   -4.200517 C.2        1 UNL1     -0.0208
     61 C         -0.357735   -2.557175   -5.411945 C.2        1 UNL1     0.0882
     62 H         3.089592   -0.036696   -4.49084 H        1 UNL1     0.0365
     63 H         4.771081   -0.653048   -5.472129 H        1 UNL1     0.0576
     64 H         7.25946   0.871006   -4.481168 H        1 UNL1     0.0615
     65 H         6.869995   -1.480955   -6.499695 H        1 UNL1     0.0622
     66 H         -2.179911   -3.883737   -3.211673 H        1 UNL1     0.0645
     67 H         -1.596349   -3.567107   -1.196876 H        1 UNL1     0.0362
     68 H         -2.989046   -1.882553   -1.000283 H        1 UNL1     0.0741
     69 H         -2.281223   0.670105   -0.903779 H        1 UNL1     0.0359
     70 H         -1.027946   1.654691   -2.472027 H        1 UNL1     0.0600
     71 H         0.781675   1.723715   -1.278202 H        1 UNL1     0.0348
     72 H         1.780129   0.887124   -3.336175 H        1 UNL1     0.0602
     73 H         0.126095   -3.838684   -3.848276 H        1 UNL1     0.0628
     74 H         -0.954846   -1.742091   -5.822229 H        1 UNL1     0.1022
     75 H         10.506885   -0.25495   -5.0874 H        1 UNL1     0.0279
     76 H         10.94097   -1.903178   -5.306983 H        1 UNL1     0.0279
     77 H         10.970919   -0.716017   -6.672651 H        1 UNL1     0.0279
     78 H         9.534929   -3.618633   -5.135433 H        1 UNL1     0.1553
     79 H         8.508985   -2.761543   -3.67288 H        1 UNL1     0.1484
     80 H         5.64705   -3.621159   -1.325566 H        1 UNL1     0.0317
     81 H         6.289657   -4.761948   -2.498418 H        1 UNL1     0.0317
     82 H         8.635539   -3.998709   -2.042341 H        1 UNL1     0.0428
     83 H         7.815972   -4.563003   -0.603041 H        1 UNL1     0.0428
     84 H         8.007515   -0.348714   -1.156414 H        1 UNL1     0.0428
     85 H         8.778171   -1.317861   -2.363048 H        1 UNL1     0.0428
     86 H         6.502755   -0.444952   -2.897243 H        1 UNL1     0.0317
     87 H         5.776005   -1.254052   -1.58593 H        1 UNL1     0.0317
     88 H         9.989045   -2.889858   -0.291674 H        1 UNL1     0.0429
     89 H         9.403767   -1.399478   0.451598 H        1 UNL1     0.0429
     90 H         7.731022   -3.533721   1.429796 H        1 UNL1     0.0308
     91 H         10.699972   -4.293062   1.354419 H        1 UNL1     0.0233
     92 H         9.560431   -4.958454   2.551999 H        1 UNL1     0.0233
     93 H         9.335562   -5.281038   0.846133 H        1 UNL1     0.0233
     94 H         9.085206   -2.988067   3.583264 H        1 UNL1     0.0233
     95 H         9.809504   -1.715195   2.588519 H        1 UNL1     0.0233
     96 H         8.050766   -1.743167   2.853188 H        1 UNL1     0.0233
     97 H         2.190819   -6.951251   -8.771398 H        1 UNL1     0.0280
     98 H         2.485392   -5.796842   -10.043308 H        1 UNL1     0.0280
     99 H         3.640545   -7.136178   -9.775852 H        1 UNL1     0.0280
     100 H         6.034643   -7.334043   -8.724332 H        1 UNL1     0.2922
     101 H         2.169947   2.281442   -4.440151 H        1 UNL1     0.0236
     102 H         3.427813   2.133441   -5.729309 H        1 UNL1     0.0236
     103 H         3.7545   2.961323   -4.238208 H        1 UNL1     0.0236
     104 H         2.789149   2.631682   -2.368804 H        1 UNL1     0.2098
     105 H         0.993666   -1.22613   -0.721126 H        1 UNL1     0.0234
     106 H         1.670273   0.132136   0.221431 H        1 UNL1     0.0234
     107 H         0.0   0.0   0.0 H        1 UNL1     0.0234
     108 H         -0.325976   -0.759425   -3.743588 H        1 UNL1     0.2098
     109 H         0.593744   -3.998387   -1.775874 H        1 UNL1     0.0234
     110 H         0.961269   -2.27403   -2.098863 H        1 UNL1     0.0234
     111 H         0.626642   -2.810246   -0.48972 H        1 UNL1     0.0234
     112 H         -3.324676   -0.135208   2.979192 H        1 UNL1     0.0342
     113 H         -3.990622   0.348985   1.379095 H        1 UNL1     0.0342
     114 H         -3.83683   -1.358241   1.803003 H        1 UNL1     0.0342
     115 H         -4.287765   -0.236808   -1.776471 H        1 UNL1     0.0234
     116 H         -3.654119   1.001585   -2.865352 H        1 UNL1     0.0234
     117 H         -3.555483   -0.733812   -3.229104 H        1 UNL1     0.0234
     118 H         0.100021   -5.293257   -4.955364 H        1 UNL1     0.0309
     119 H         1.493347   -6.180617   -5.647677 H        1 UNL1     0.0309
     120 H         1.670865   -5.127895   -4.261163 H        1 UNL1     0.0309
     121 H         -4.302557   -1.793409   -4.75277 H        1 UNL1     0.0524
     122 H         -3.92317   -3.44912   -4.261301 H        1 UNL1     0.0524
     123 H         -4.432048   -2.26079   -3.035471 H        1 UNL1     0.0524
@<TRIPOS>BOND
     1     1     2    1
     2     1    42    1
     3     2     3    2
     4     3     4    1
     5     4     5    2
     6     5     7    1
     7     6    75    1
     8     6    76    1
     9     6    77    1
    10     7     9   am
    11     9    10    1
    12    10    11    2
    13    10    43    1
    14    11    14    1
    15    11    15    1
    16    12    13   ar
    17    12    27   ar
    18    12    43    1
    19    13    14    1
    20    13    30   ar
    21    14    17    2
    22    15    16    1
    23    16    17    1
    24    16    18    1
    25    16    22    1
    26    18    19    1
    27    19    20    1
    28    20    21    1
    29    21    22    1
    30    23    24    1
    31    23    88    1
    32    23    89    1
    33    24    25    1
    34    24    26    1
    35    24    90    1
    36    25    91    1
    37    25    92    1
    38    25    93    1
    39    26    94    1
    40    26    95    1
    41    26    96    1
    42    27    28   ar
    43    28    29   ar
    44    29    30   ar
    45    29    31    1
    46    30    33    1
    47    31    32    1
    48    32    33    1
    49    32    35    1
    50    34    97    1
    51    34    98    1
    52    34    99    1
    53    35    61    1
    54    36    37    1
    55    36    60    1
    56    37    38    1
    57    38    39    1
    58    39    40    1
    59    40    41    1
    60    41    42    1
    61    45   100    1
    62    47   101    1
    63    47   102    1
    64    47   103    1
    65    48   104    1
    66    49   105    1
    67    49   106    1
    68    49   107    1
    69    50   108    1
    70    51    59    1
    71    52   109    1
    72    52   110    1
    73    52   111    1
    74    53    54    1
    75    54    55    2
    76    54    56    1
    77    56   112    1
    78    56   113    1
    79    56   114    1
    80    57   115    1
    81    57   116    1
    82    57   117    1
    83    58   118    1
    84    58   119    1
    85    58   120    1
    86    59   121    1
    87    59   122    1
    88    59   123    1
    89    60    61    2
    90     1    47    1
    91     1    62    1
    92     2    63    1
    93     3    64    1
    94     4    65    1
    95     5     6    1
    96     7     8    2
    97     9    78    1
    98    15    79    1
    99    18    80    1
   100    18    81    1
   101    19    82    1
   102    19    83    1
   103    20    23    1
   104    21    84    1
   105    21    85    1
   106    22    86    1
   107    22    87    1
   108    27    45    1
   109    28    34    1
   110    32    58    1
   111    33    46    2
   112    36    51    1
   113    36    66    1
   114    37    52    1
   115    37    67    1
   116    38    53    1
   117    38    68    1
   118    42    48    1
   119    42    72    1
   120    43    44    2
   121    60    73    1
   122    61    74    1
   123    39    69    1
   124    39    57    1
   125    40    70    1
   126    40    50    1
   127    41    71    1
   128    41    49    1
