@<TRIPOS>MOLECULE
*****
 123 128 0 0 0
SMALL
GASTEIGER

@<TRIPOS>ATOM
     1 C         3.774842   -3.43848   1.491429 C.3        1 UNL1     0.0009
     2 C         4.138507   -4.979998   2.455019 C.2        1 UNL1     -0.0787
     3 C         4.497904   -5.628518   3.698523 C.2        1 UNL1     -0.0649
     4 C         4.57571   -7.28858   4.021784 C.2        1 UNL1     -0.0542
     5 C         4.573738   -8.274695   5.038963 C.2        1 UNL1     0.0115
     6 C         4.659972   -8.496696   6.574085 C.3        1 UNL1     -0.0348
     7 C         4.249326   -9.796671   4.644838 C.2        1 UNL1     0.2441
     8 O         5.11505   -10.653339   4.530091 O.2        1 UNL1     -0.2702
     9 N         2.88731   -10.140829   4.696022 N.am        1 UNL1     -0.2772
     10 C         2.27819   -9.870703   3.492142 C.2        1 UNL1     0.1049
     11 C         1.888489   -8.622914   3.304053 C.2        1 UNL1     0.0801
     12 C         2.523587   -10.206526   1.025497 C.ar        1 UNL1     0.0753
     13 C         2.300813   -8.799094   0.890904 C.ar        1 UNL1     0.0305
     14 C         1.845591   -7.985432   2.015972 C.2        1 UNL1     0.0924
     15 N         1.79699   -7.605531   4.177601 N.pl3        1 UNL1     -0.3170
     16 C         1.155637   -6.506316   3.506298 C.3        1 UNL1     0.1275
     17 N         1.496985   -6.702354   2.049323 N.2        1 UNL1     -0.2557
     18 C         -0.350218   -6.722833   3.621292 C.3        1 UNL1     0.0016
     19 C         -0.711334   -6.857072   5.092062 C.3        1 UNL1     0.0026
     20 N         -0.301781   -5.644403   5.78685 N.3        1 UNL1     -0.3018
     21 C         1.121912   -5.318238   5.681567 C.3        1 UNL1     0.0026
     22 C         1.46168   -5.183475   4.196208 C.3        1 UNL1     0.0016
     23 C         -0.862141   -5.541432   7.11953 C.3        1 UNL1     0.0012
     24 C         -2.379203   -5.784681   7.086209 C.3        1 UNL1     -0.0339
     25 C         -2.770103   -6.744034   5.950033 C.3        1 UNL1     -0.0615
     26 C         -2.854824   -6.293459   8.435917 C.3        1 UNL1     -0.0615
     27 C         2.84004   -10.995911   -0.077611 C.ar        1 UNL1     0.1347
     28 C         2.922138   -10.499715   -1.366448 C.ar        1 UNL1     0.0342
     29 C         2.747162   -9.103184   -1.467685 C.ar        1 UNL1     0.1435
     30 C         2.465362   -8.294093   -0.366241 C.ar        1 UNL1     0.0774
     31 O         2.688899   -8.485381   -2.667657 O.3        1 UNL1     -0.4436
     32 C         2.049168   -7.228848   -2.397949 C.3        1 UNL1     0.3143
     33 C         2.29067   -6.96954   -0.924637 C.2        1 UNL1     0.2504
     34 C         3.007262   -11.320136   -2.623334 C.3        1 UNL1     -0.0327
     35 O         2.766494   -6.22158   -3.121902 O.2        1 UNL1     -0.4528
     36 C         0.221942   -3.533381   -3.962693 C.3        1 UNL1     0.0854
     37 C         -0.700845   -2.697288   -2.994739 C.3        1 UNL1     0.0236
     38 C         -0.570478   -1.105898   -3.143819 C.3        1 UNL1     0.1131
     39 C         0.858672   -0.428641   -3.110302 C.3        1 UNL1     0.0200
     40 C         1.994432   -0.907581   -1.986423 C.3        1 UNL1     0.0661
     41 C         1.736735   -1.061584   -0.316847 C.3        1 UNL1     0.0091
     42 C         2.475622   -2.21912   0.899524 C.3        1 UNL1     0.0661
     43 C         2.318582   -10.813274   2.364187 C.2        1 UNL1     0.2131
     44 O         2.09033   -11.996515   2.539054 O.2        1 UNL1     -0.2851
     45 O         3.086358   -12.348857   0.146669 O.3        1 UNL1     -0.5056
     46 O         2.348197   -5.907622   -0.345953 O.2        1 UNL1     -0.2836
     47 C         5.089395   -2.672165   1.183706 C.3        1 UNL1     -0.0566
     48 O         2.777508   -1.161287   1.893994 O.3        1 UNL1     -0.3909
     49 C         0.248778   -1.029298   -0.047707 C.3        1 UNL1     -0.0577
     50 O         2.738271   -2.010354   -2.46425 O.3        1 UNL1     -0.3910
     51 O         1.163623   -2.79422   -4.707213 O.3        1 UNL1     -0.3753
     52 C         -0.864152   -3.391168   -1.603046 C.3        1 UNL1     -0.0564
     53 O         -1.684741   -0.347586   -2.483739 O.3        1 UNL1     -0.4608
     54 C         -1.550856   0.477521   -1.397827 C.2        1 UNL1     0.3042
     55 O         -1.957537   1.633077   -1.283196 O.2        1 UNL1     -0.2512
     56 C         -0.872148   -0.174644   -0.227038 C.3        1 UNL1     0.0332
     57 C         1.340245   -0.243475   -4.624229 C.3        1 UNL1     -0.0567
     58 C         0.535544   -7.451256   -2.623795 C.3        1 UNL1     0.0210
     59 C         0.61203   -1.735591   -5.488824 C.3        1 UNL1     0.0372
     60 C         0.966094   -4.647903   -3.315206 C.2        1 UNL1     -0.0208
     61 C         2.240181   -5.022696   -3.43759 C.2        1 UNL1     0.0882
     62 H         3.562298   -4.060383   0.613493 H        1 UNL1     0.0365
     63 H         4.082517   -5.731855   1.665054 H        1 UNL1     0.0576
     64 H         4.59967   -5.065679   4.629094 H        1 UNL1     0.0615
     65 H         4.545448   -7.748821   3.030449 H        1 UNL1     0.0622
     66 H         -0.475275   -4.006524   -4.668434 H        1 UNL1     0.0645
     67 H         -1.720611   -2.871011   -3.380041 H        1 UNL1     0.0362
     68 H         -0.924769   -0.988513   -4.1793 H        1 UNL1     0.0741
     69 H         0.739722   0.624513   -2.893219 H        1 UNL1     0.0359
     70 H         2.695622   -0.053415   -2.04801 H        1 UNL1     0.0600
     71 H         2.040127   -0.050787   0.019605 H        1 UNL1     0.0348
     72 H         3.152204   -2.217619   0.032603 H        1 UNL1     0.0602
     73 H         0.283938   -5.255321   -2.773954 H        1 UNL1     0.0628
     74 H         3.013609   -4.428513   -3.925435 H        1 UNL1     0.1022
     75 H         4.269418   -9.506747   6.846662 H        1 UNL1     0.0279
     76 H         5.657497   -8.506427   7.007581 H        1 UNL1     0.0279
     77 H         3.979206   -7.841759   7.137393 H        1 UNL1     0.0279
     78 H         2.420064   -9.582949   5.40773 H        1 UNL1     0.1553
     79 H         1.765988   -7.727312   5.173161 H        1 UNL1     0.1484
     80 H         -0.869685   -5.875855   3.157018 H        1 UNL1     0.0317
     81 H         -0.659673   -7.619058   3.072959 H        1 UNL1     0.0317
     82 H         -0.25063   -7.747414   5.544782 H        1 UNL1     0.0428
     83 H         -1.789017   -7.012546   5.151034 H        1 UNL1     0.0428
     84 H         1.38833   -4.362634   6.143794 H        1 UNL1     0.0428
     85 H         1.749309   -6.052299   6.205822 H        1 UNL1     0.0428
     86 H         2.470614   -4.816215   4.162133 H        1 UNL1     0.0317
     87 H         0.879378   -4.367416   3.751159 H        1 UNL1     0.0317
     88 H         -0.397922   -6.314399   7.745881 H        1 UNL1     0.0429
     89 H         -0.626487   -4.572101   7.577392 H        1 UNL1     0.0429
     90 H         -2.892846   -4.828913   6.928442 H        1 UNL1     0.0308
     91 H         -3.07535   -6.195674   5.053803 H        1 UNL1     0.0233
     92 H         -1.937575   -7.405652   5.699496 H        1 UNL1     0.0233
     93 H         -3.607656   -7.396836   6.224241 H        1 UNL1     0.0233
     94 H         -3.930899   -6.495872   8.405441 H        1 UNL1     0.0233
     95 H         -2.343042   -7.227355   8.684674 H        1 UNL1     0.0233
     96 H         -2.662709   -5.563932   9.227655 H        1 UNL1     0.0233
     97 H         3.335885   -10.730017   -3.473627 H        1 UNL1     0.0280
     98 H         3.727989   -12.143245   -2.53223 H        1 UNL1     0.0280
     99 H         2.015627   -11.740883   -2.85727 H        1 UNL1     0.0280
     100 H         3.988629   -12.560755   0.309851 H        1 UNL1     0.2922
     101 H         5.89061   -3.045886   1.820921 H        1 UNL1     0.0236
     102 H         4.981499   -1.590339   1.254384 H        1 UNL1     0.0236
     103 H         5.442841   -2.852695   0.154786 H        1 UNL1     0.0236
     104 H         1.985349   -1.04929   2.455162 H        1 UNL1     0.2098
     105 H         -0.358537   -1.482598   -0.827129 H        1 UNL1     0.0234
     106 H         -0.045489   -1.410367   0.930107 H        1 UNL1     0.0234
     107 H         0.0   0.0   0.0 H        1 UNL1     0.0234
     108 H         3.216418   -2.389939   -1.701978 H        1 UNL1     0.2098
     109 H         -1.906621   -3.385701   -1.25528 H        1 UNL1     0.0234
     110 H         -0.4772   -4.415708   -1.584892 H        1 UNL1     0.0234
     111 H         -0.288032   -2.875169   -0.823445 H        1 UNL1     0.0234
     112 H         -1.297342   0.203509   0.707604 H        1 UNL1     0.0342
     113 H         -0.931883   -1.261036   -0.272083 H        1 UNL1     0.0342
     114 H         0.191066   0.101476   -0.249351 H        1 UNL1     0.0342
     115 H         1.963497   0.652892   -4.74781 H        1 UNL1     0.0234
     116 H         1.90355   -1.091895   -5.017828 H        1 UNL1     0.0234
     117 H         0.515408   -0.02777   -5.324983 H        1 UNL1     0.0234
     118 H         0.26674   -8.521985   -2.606749 H        1 UNL1     0.0309
     119 H         -0.089804   -6.913501   -1.904099 H        1 UNL1     0.0309
     120 H         0.206008   -7.123892   -3.615936 H        1 UNL1     0.0309
     121 H         -0.371009   -1.502164   -5.080777 H        1 UNL1     0.0524
     122 H         1.219678   -0.816834   -5.436999 H        1 UNL1     0.0524
     123 H         0.523728   -2.041795   -6.52735 H        1 UNL1     0.0524
@<TRIPOS>BOND
     1     1     2    1
     2     1    42    1
     3     2     3    2
     4     3     4    1
     5     4     5    2
     6     5     7    1
     7     6    75    1
     8     6    76    1
     9     6    77    1
    10     7     9   am
    11     9    10    1
    12    10    11    2
    13    10    43    1
    14    11    14    1
    15    11    15    1
    16    12    13   ar
    17    12    27   ar
    18    12    43    1
    19    13    14    1
    20    13    30   ar
    21    14    17    2
    22    15    16    1
    23    16    17    1
    24    16    18    1
    25    16    22    1
    26    18    19    1
    27    19    20    1
    28    20    21    1
    29    21    22    1
    30    23    24    1
    31    23    88    1
    32    23    89    1
    33    24    25    1
    34    24    26    1
    35    24    90    1
    36    25    91    1
    37    25    92    1
    38    25    93    1
    39    26    94    1
    40    26    95    1
    41    26    96    1
    42    27    28   ar
    43    28    29   ar
    44    29    30   ar
    45    29    31    1
    46    30    33    1
    47    31    32    1
    48    32    33    1
    49    32    35    1
    50    34    97    1
    51    34    98    1
    52    34    99    1
    53    35    61    1
    54    36    37    1
    55    36    60    1
    56    37    38    1
    57    38    39    1
    58    39    40    1
    59    40    41    1
    60    41    42    1
    61    45   100    1
    62    47   101    1
    63    47   102    1
    64    47   103    1
    65    48   104    1
    66    49   105    1
    67    49   106    1
    68    49   107    1
    69    50   108    1
    70    51    59    1
    71    52   109    1
    72    52   110    1
    73    52   111    1
    74    53    54    1
    75    54    55    2
    76    54    56    1
    77    56   112    1
    78    56   113    1
    79    56   114    1
    80    57   115    1
    81    57   116    1
    82    57   117    1
    83    58   118    1
    84    58   119    1
    85    58   120    1
    86    59   121    1
    87    59   122    1
    88    59   123    1
    89    60    61    2
    90     1    47    1
    91     1    62    1
    92     2    63    1
    93     3    64    1
    94     4    65    1
    95     5     6    1
    96     7     8    2
    97     9    78    1
    98    15    79    1
    99    18    80    1
   100    18    81    1
   101    19    82    1
   102    19    83    1
   103    20    23    1
   104    21    84    1
   105    21    85    1
   106    22    86    1
   107    22    87    1
   108    27    45    1
   109    28    34    1
   110    32    58    1
   111    33    46    2
   112    36    51    1
   113    36    66    1
   114    37    52    1
   115    37    67    1
   116    38    53    1
   117    38    68    1
   118    42    48    1
   119    42    72    1
   120    43    44    2
   121    60    73    1
   122    61    74    1
   123    39    69    1
   124    39    57    1
   125    40    70    1
   126    40    50    1
   127    41    71    1
   128    41    49    1
