@<TRIPOS>MOLECULE
*****
 123 128 0 0 0
SMALL
GASTEIGER

@<TRIPOS>ATOM
     1 C         1.784219   0.860727   4.619594 C.3        1 UNL1     0.0009
     2 C         1.261734   1.451697   6.297331 C.2        1 UNL1     -0.0787
     3 C         0.971902   2.534493   7.213625 C.2        1 UNL1     -0.0649
     4 C         0.34712   2.429957   8.783682 C.2        1 UNL1     -0.0542
     5 C         -0.315034   3.13464   9.819081 C.2        1 UNL1     0.0115
     6 C         -0.7808   4.542332   10.282531 C.3        1 UNL1     -0.0348
     7 C         -1.029537   2.302633   10.99136 C.2        1 UNL1     0.2441
     8 O         -0.537878   2.162417   12.102727 O.2        1 UNL1     -0.2702
     9 N         -2.371729   1.967339   10.741859 N.am        1 UNL1     -0.2772
     10 C         -2.450323   0.770661   10.067242 C.2        1 UNL1     0.1049
     11 C         -2.289824   0.829149   8.757646 C.2        1 UNL1     0.0801
     12 C         -1.611456   -1.585674   10.103543 C.ar        1 UNL1     0.0753
     13 C         -1.262271   -1.399662   8.728015 C.ar        1 UNL1     0.0305
     14 C         -1.710945   -0.229868   7.976134 C.2        1 UNL1     0.0924
     15 N         -2.268297   1.893132   7.936669 N.pl3        1 UNL1     -0.3170
     16 C         -2.237968   1.403811   6.583931 C.3        1 UNL1     0.1275
     17 N         -1.568145   0.055158   6.684896 N.2        1 UNL1     -0.2557
     18 C         -3.680598   1.13019   6.169619 C.3        1 UNL1     0.0016
     19 C         -4.490651   2.402822   6.358861 C.3        1 UNL1     0.0026
     20 N         -3.902546   3.457129   5.544247 N.3        1 UNL1     -0.3018
     21 C         -2.496043   3.75022   5.827472 C.3        1 UNL1     0.0026
     22 C         -1.700267   2.459354   5.626719 C.3        1 UNL1     0.0016
     23 C         -4.761841   4.617362   5.417296 C.3        1 UNL1     0.0012
     24 C         -3.952413   5.910197   5.604805 C.3        1 UNL1     -0.0339
     25 C         -3.285934   5.960578   6.989479 C.3        1 UNL1     -0.0615
     26 C         -2.932845   6.052866   4.488155 C.3        1 UNL1     -0.0615
     27 C         -1.283262   -2.758634   10.779245 C.ar        1 UNL1     0.1347
     28 C         -0.644476   -3.827516   10.176341 C.ar        1 UNL1     0.0342
     29 C         -0.267025   -3.602522   8.835419 C.ar        1 UNL1     0.1435
     30 C         -0.55703   -2.418563   8.156184 C.ar        1 UNL1     0.0774
     31 O         0.264683   -4.586925   8.078291 O.3        1 UNL1     -0.4436
     32 C         0.069611   -4.149182   6.725072 C.3        1 UNL1     0.3143
     33 C         -0.06753   -2.642577   6.811947 C.2        1 UNL1     0.2504
     34 C         -0.485478   -5.203423   10.760891 C.3        1 UNL1     -0.0327
     35 O         1.283005   -4.417194   6.011562 O.2        1 UNL1     -0.4528
     36 C         0.253768   -5.07102   2.416945 C.3        1 UNL1     0.0854
     37 C         -0.552583   -4.144802   1.427278 C.3        1 UNL1     0.0236
     38 C         0.178988   -3.848698   0.031259 C.3        1 UNL1     0.1131
     39 C         1.674609   -3.333616   0.022358 C.3        1 UNL1     0.0200
     40 C         2.167523   -2.151716   1.091276 C.3        1 UNL1     0.0661
     41 C         1.381871   -0.674481   1.370805 C.3        1 UNL1     0.0091
     42 C         1.252641   0.334424   2.897505 C.3        1 UNL1     0.0661
     43 C         -2.413529   -0.524836   10.761997 C.2        1 UNL1     0.2131
     44 O         -3.092755   -0.713157   11.754934 O.2        1 UNL1     -0.2851
     45 O         -1.619085   -2.841088   12.129009 O.3        1 UNL1     -0.5056
     46 O         0.190419   -1.812605   5.969059 O.2        1 UNL1     -0.2836
     47 C         3.313335   1.052399   4.432388 C.3        1 UNL1     -0.0566
     48 O         1.599795   1.607949   2.221682 O.3        1 UNL1     -0.3909
     49 C         -0.002007   -0.735201   0.763606 C.3        1 UNL1     -0.0577
     50 O         2.572448   -2.723478   2.318813 O.3        1 UNL1     -0.3910
     51 O         1.575261   -5.378558   2.03418 O.3        1 UNL1     -0.3753
     52 C         -1.365072   -3.047355   2.189132 C.3        1 UNL1     -0.0564
     53 O         -0.731745   -3.273928   -1.013983 O.3        1 UNL1     -0.4608
     54 C         -1.437802   -2.105208   -0.89776 C.2        1 UNL1     0.3042
     55 O         -1.09129   -1.078004   -0.31585 O.2        1 UNL1     -0.2512
     56 C         -2.7498   -2.119913   -1.629306 C.3        1 UNL1     0.0332
     57 C         2.622356   -4.607724   -0.168952 C.3        1 UNL1     -0.0567
     58 C         -1.279373   -4.747041   6.262105 C.3        1 UNL1     0.0210
     59 C         1.806722   -6.753299   1.730241 C.3        1 UNL1     0.0372
     60 C         0.315924   -4.585777   3.82259 C.2        1 UNL1     -0.0208
     61 C         1.343679   -4.521051   4.670101 C.2        1 UNL1     0.0882
     62 H         1.637456   -0.171831   4.958705 H        1 UNL1     0.0365
     63 H         1.18011   0.502593   6.831194 H        1 UNL1     0.0576
     64 H         0.983746   3.577465   6.889316 H        1 UNL1     0.0615
     65 H         0.453585   1.37157   9.036596 H        1 UNL1     0.0622
     66 H         -0.319569   -6.008271   2.446799 H        1 UNL1     0.0645
     67 H         -1.399805   -4.773323   1.102106 H        1 UNL1     0.0362
     68 H         0.219947   -4.87071   -0.375356 H        1 UNL1     0.0741
     69 H         1.88239   -2.88474   -0.939799 H        1 UNL1     0.0359
     70 H         3.112246   -1.838611   0.606998 H        1 UNL1     0.0600
     71 H         1.91159   -0.032496   0.639909 H        1 UNL1     0.0348
     72 H         2.111885   -0.335109   3.048301 H        1 UNL1     0.0602
     73 H         -0.667794   -4.37965   4.164731 H        1 UNL1     0.0628
     74 H         2.38719   -4.660486   4.385707 H        1 UNL1     0.1022
     75 H         -1.895299   4.61099   10.26796 H        1 UNL1     0.0279
     76 H         -0.542409   4.819308   11.306994 H        1 UNL1     0.0279
     77 H         -0.505383   5.336354   9.573042 H        1 UNL1     0.0279
     78 H         -2.798424   2.679556   10.153 H        1 UNL1     0.1553
     79 H         -2.639177   2.792903   8.181194 H        1 UNL1     0.1484
     80 H         -3.695519   0.797582   5.124672 H        1 UNL1     0.0317
     81 H         -4.110729   0.316709   6.763662 H        1 UNL1     0.0317
     82 H         -4.539735   2.700687   7.416585 H        1 UNL1     0.0428
     83 H         -5.51625   2.184897   6.059351 H        1 UNL1     0.0428
     84 H         -2.056679   4.488501   5.149453 H        1 UNL1     0.0428
     85 H         -2.363287   4.191688   6.824868 H        1 UNL1     0.0428
     86 H         -0.666837   2.740162   5.711324 H        1 UNL1     0.0317
     87 H         -1.787588   2.123302   4.586267 H        1 UNL1     0.0317
     88 H         -5.189744   4.616463   4.406261 H        1 UNL1     0.0429
     89 H         -5.601949   4.57041   6.122128 H        1 UNL1     0.0429
     90 H         -4.624047   6.771558   5.509007 H        1 UNL1     0.0308
     91 H         -2.455406   5.251532   7.057162 H        1 UNL1     0.0233
     92 H         -2.917276   6.96632   7.204383 H        1 UNL1     0.0233
     93 H         -3.983671   5.711375   7.798117 H        1 UNL1     0.0233
     94 H         -3.366545   5.726472   3.536731 H        1 UNL1     0.0233
     95 H         -2.638506   7.100809   4.382595 H        1 UNL1     0.0233
     96 H         -2.039522   5.45336   4.684456 H        1 UNL1     0.0233
     97 H         -0.29052   -5.172427   11.828721 H        1 UNL1     0.0280
     98 H         -1.390717   -5.812315   10.638218 H        1 UNL1     0.0280
     99 H         0.3573   -5.717591   10.270531 H        1 UNL1     0.0280
     100 H         -1.237129   -3.571207   12.583606 H        1 UNL1     0.2922
     101 H         3.847053   0.220211   4.890934 H        1 UNL1     0.0236
     102 H         3.671769   2.016211   4.792352 H        1 UNL1     0.0236
     103 H         3.607499   1.022139   3.369964 H        1 UNL1     0.0236
     104 H         2.565089   1.733762   2.307405 H        1 UNL1     0.2098
     105 H         -0.250164   -1.689554   0.305961 H        1 UNL1     0.0234
     106 H         -0.804906   -0.414301   1.427159 H        1 UNL1     0.0234
     107 H         0.0   0.0   0.0 H        1 UNL1     0.0234
     108 H         2.606212   -3.6911   2.191002 H        1 UNL1     0.2098
     109 H         -2.200384   -3.471782   2.763438 H        1 UNL1     0.0234
     110 H         -0.743488   -2.43102   2.847545 H        1 UNL1     0.0234
     111 H         -1.81721   -2.324783   1.496739 H        1 UNL1     0.0234
     112 H         -3.221466   -1.134496   -1.567428 H        1 UNL1     0.0342
     113 H         -2.637347   -2.434863   -2.665649 H        1 UNL1     0.0342
     114 H         -3.41188   -2.842014   -1.131929 H        1 UNL1     0.0342
     115 H         2.800159   -5.130751   0.780794 H        1 UNL1     0.0234
     116 H         2.240985   -5.341694   -0.881618 H        1 UNL1     0.0234
     117 H         3.653228   -4.348581   -0.465752 H        1 UNL1     0.0234
     118 H         -2.139948   -4.250876   6.744015 H        1 UNL1     0.0309
     119 H         -1.411728   -4.718558   5.175885 H        1 UNL1     0.0309
     120 H         -1.396576   -5.79628   6.55445 H        1 UNL1     0.0309
     121 H         0.947201   -7.31935   2.088244 H        1 UNL1     0.0524
     122 H         1.894236   -6.933022   0.64577 H        1 UNL1     0.0524
     123 H         2.71315   -7.098875   2.219178 H        1 UNL1     0.0524
@<TRIPOS>BOND
     1     1     2    1
     2     1    42    1
     3     2     3    2
     4     3     4    1
     5     4     5    2
     6     5     7    1
     7     6    75    1
     8     6    76    1
     9     6    77    1
    10     7     9   am
    11     9    10    1
    12    10    11    2
    13    10    43    1
    14    11    14    1
    15    11    15    1
    16    12    13   ar
    17    12    27   ar
    18    12    43    1
    19    13    14    1
    20    13    30   ar
    21    14    17    2
    22    15    16    1
    23    16    17    1
    24    16    18    1
    25    16    22    1
    26    18    19    1
    27    19    20    1
    28    20    21    1
    29    21    22    1
    30    23    24    1
    31    23    88    1
    32    23    89    1
    33    24    25    1
    34    24    26    1
    35    24    90    1
    36    25    91    1
    37    25    92    1
    38    25    93    1
    39    26    94    1
    40    26    95    1
    41    26    96    1
    42    27    28   ar
    43    28    29   ar
    44    29    30   ar
    45    29    31    1
    46    30    33    1
    47    31    32    1
    48    32    33    1
    49    32    35    1
    50    34    97    1
    51    34    98    1
    52    34    99    1
    53    35    61    1
    54    36    37    1
    55    36    60    1
    56    37    38    1
    57    38    39    1
    58    39    40    1
    59    40    41    1
    60    41    42    1
    61    45   100    1
    62    47   101    1
    63    47   102    1
    64    47   103    1
    65    48   104    1
    66    49   105    1
    67    49   106    1
    68    49   107    1
    69    50   108    1
    70    51    59    1
    71    52   109    1
    72    52   110    1
    73    52   111    1
    74    53    54    1
    75    54    55    2
    76    54    56    1
    77    56   112    1
    78    56   113    1
    79    56   114    1
    80    57   115    1
    81    57   116    1
    82    57   117    1
    83    58   118    1
    84    58   119    1
    85    58   120    1
    86    59   121    1
    87    59   122    1
    88    59   123    1
    89    60    61    2
    90     1    47    1
    91     1    62    1
    92     2    63    1
    93     3    64    1
    94     4    65    1
    95     5     6    1
    96     7     8    2
    97     9    78    1
    98    15    79    1
    99    18    80    1
   100    18    81    1
   101    19    82    1
   102    19    83    1
   103    20    23    1
   104    21    84    1
   105    21    85    1
   106    22    86    1
   107    22    87    1
   108    27    45    1
   109    28    34    1
   110    32    58    1
   111    33    46    2
   112    36    51    1
   113    36    66    1
   114    37    52    1
   115    37    67    1
   116    38    53    1
   117    38    68    1
   118    42    48    1
   119    42    72    1
   120    43    44    2
   121    60    73    1
   122    61    74    1
   123    39    69    1
   124    39    57    1
   125    40    70    1
   126    40    50    1
   127    41    71    1
   128    41    49    1
