@<TRIPOS>MOLECULE
*****
 123 128 0 0 0
SMALL
GASTEIGER

@<TRIPOS>ATOM
     1 C         3.287321   2.482199   0.30518 C.3        1 UNL1     0.0009
     2 C         3.835135   3.804329   -0.87334 C.2        1 UNL1     -0.0787
     3 C         4.640609   4.228322   -1.999168 C.2        1 UNL1     -0.0649
     4 C         4.620487   5.726485   -2.787496 C.2        1 UNL1     -0.0542
     5 C         4.956007   6.41631   -3.978565 C.2        1 UNL1     0.0115
     6 C         5.723276   6.300175   -5.324349 C.3        1 UNL1     -0.0348
     7 C         4.267542   7.83601   -4.274296 C.2        1 UNL1     0.2441
     8 O         4.842281   8.902494   -4.104552 O.2        1 UNL1     -0.2702
     9 N         3.057341   7.766823   -4.986179 N.am        1 UNL1     -0.2772
     10 C         1.998602   7.617629   -4.120075 C.2        1 UNL1     0.1049
     11 C         1.751572   6.386976   -3.709355 C.2        1 UNL1     0.0801
     12 C         0.999413   8.557524   -2.028293 C.ar        1 UNL1     0.0753
     13 C         0.945914   7.212173   -1.542721 C.ar        1 UNL1     0.0305
     14 C         1.198721   6.071415   -2.42011 C.2        1 UNL1     0.0924
     15 N         2.231508   5.214135   -4.157277 N.pl3        1 UNL1     -0.3170
     16 C         1.516086   4.161512   -3.48615 C.3        1 UNL1     0.1275
     17 N         1.097037   4.769145   -2.169752 N.2        1 UNL1     -0.2557
     18 C         0.22938   3.918722   -4.269184 C.3        1 UNL1     0.0016
     19 C         0.589931   3.610782   -5.713748 C.3        1 UNL1     0.0026
     20 N         1.449542   2.435471   -5.740974 N.3        1 UNL1     -0.3018
     21 C         2.68525   2.550852   -4.963746 C.3        1 UNL1     0.0026
     22 C         2.299324   2.855665   -3.515283 C.3        1 UNL1     0.0016
     23 C         1.605992   1.881918   -7.071292 C.3        1 UNL1     0.0012
     24 C         0.295914   1.230091   -7.540945 C.3        1 UNL1     -0.0339
     25 C         0.55925   -0.091083   -8.282032 C.3        1 UNL1     -0.0615
     26 C         -0.639593   1.03226   -6.360916 C.3        1 UNL1     -0.0615
     27 C         0.639798   9.632048   -1.218235 C.ar        1 UNL1     0.1347
     28 C         0.174843   9.48332   0.076271 C.ar        1 UNL1     0.0342
     29 C         0.177076   8.153895   0.549333 C.ar        1 UNL1     0.1435
     30 C         0.568896   7.07099   -0.238713 C.ar        1 UNL1     0.0774
     31 O         -0.35041   7.832493   1.750776 O.3        1 UNL1     -0.4436
     32 C         -0.597591   6.420538   1.672315 C.3        1 UNL1     0.3143
     33 C         0.345226   5.912278   0.600409 C.2        1 UNL1     0.2504
     34 C         -0.463016   10.557263   0.912861 C.3        1 UNL1     -0.0327
     35 O         -0.169542   5.843608   2.912145 O.2        1 UNL1     -0.4528
     36 C         -2.390091   2.816604   3.472942 C.3        1 UNL1     0.0854
     37 C         -2.614815   1.560394   2.546142 C.3        1 UNL1     0.0236
     38 C         -2.341393   0.144831   3.2484 C.3        1 UNL1     0.1131
     39 C         -0.984612   -0.09742   4.024757 C.3        1 UNL1     0.0200
     40 C         0.464157   0.411301   3.373059 C.3        1 UNL1     0.0661
     41 C         1.005604   0.105593   1.794773 C.3        1 UNL1     0.0091
     42 C         2.054621   1.116455   0.679818 C.3        1 UNL1     0.0661
     43 C         1.364998   8.763982   -3.451663 C.2        1 UNL1     0.2131
     44 O         1.077705   9.765474   -4.081912 O.2        1 UNL1     -0.2851
     45 O         0.763982   10.912791   -1.752757 O.3        1 UNL1     -0.5056
     46 O         0.822071   4.80604   0.479123 O.2        1 UNL1     -0.2836
     47 C         4.396303   2.202149   1.354804 C.3        1 UNL1     -0.0566
     48 O         2.939597   -0.012078   0.302528 O.3        1 UNL1     -0.3909
     49 C         -0.156776   -0.399355   0.969307 C.3        1 UNL1     -0.0577
     50 O         0.72593   1.755774   3.721757 O.3        1 UNL1     -0.3910
     51 O         -1.815444   2.557015   4.733825 O.3        1 UNL1     -0.3753
     52 C         -2.200568   1.847795   1.066024 C.3        1 UNL1     -0.0564
     53 O         -2.889185   -1.02237   2.480356 O.3        1 UNL1     -0.4608
     54 C         -2.189726   -2.151862   2.144297 C.2        1 UNL1     0.3042
     55 O         -2.515411   -3.320578   2.348919 O.2        1 UNL1     -0.2512
     56 C         -0.91795   -1.871188   1.395618 C.3        1 UNL1     0.0332
     57 C         -1.253396   0.206253   5.571919 C.3        1 UNL1     -0.0567
     58 C         -2.052746   6.258209   1.174619 C.3        1 UNL1     0.0210
     59 C         -0.456301   2.124431   4.695499 C.3        1 UNL1     0.0372
     60 C         -1.59872   3.9175   2.859004 C.2        1 UNL1     -0.0208
     61 C         -0.602674   4.649478   3.359848 C.2        1 UNL1     0.0882
     62 H         2.598147   3.202277   0.762607 H        1 UNL1     0.0365
     63 H         3.304814   4.669361   -0.469673 H        1 UNL1     0.0576
     64 H         5.249728   3.520656   -2.565993 H        1 UNL1     0.0615
     65 H         4.059734   6.372015   -2.106079 H        1 UNL1     0.0622
     66 H         -3.397985   3.224026   3.634812 H        1 UNL1     0.0645
     67 H         -3.708665   1.526076   2.401666 H        1 UNL1     0.0362
     68 H         -3.121157   0.171003   4.024806 H        1 UNL1     0.0741
     69 H         -0.833153   -1.162747   4.136767 H        1 UNL1     0.0359
     70 H         1.168573   -0.177074   3.991665 H        1 UNL1     0.0600
     71 H         1.574567   -0.829719   1.963382 H        1 UNL1     0.0348
     72 H         2.23416   1.499424   1.694912 H        1 UNL1     0.0602
     73 H         -2.02451   4.172295   1.920371 H        1 UNL1     0.0628
     74 H         -0.07422   4.420344   4.285845 H        1 UNL1     0.1022
     75 H         6.746222   5.884399   -5.157778 H        1 UNL1     0.0279
     76 H         5.30931   5.615624   -6.061297 H        1 UNL1     0.0279
     77 H         5.956774   7.279738   -5.766656 H        1 UNL1     0.0279
     78 H         3.067598   6.955026   -5.600147 H        1 UNL1     0.1553
     79 H         2.656712   5.093923   -5.058212 H        1 UNL1     0.1484
     80 H         -0.318862   3.088622   -3.807521 H        1 UNL1     0.0317
     81 H         -0.428254   4.793339   -4.222129 H        1 UNL1     0.0317
     82 H         1.075337   4.46763   -6.203752 H        1 UNL1     0.0428
     83 H         -0.341998   3.44279   -6.25443 H        1 UNL1     0.0428
     84 H         3.273419   1.628317   -4.935496 H        1 UNL1     0.0428
     85 H         3.372009   3.291995   -5.395469 H        1 UNL1     0.0428
     86 H         3.213873   2.801197   -2.954371 H        1 UNL1     0.0317
     87 H         1.701032   2.032599   -3.105767 H        1 UNL1     0.0317
     88 H         1.852692   2.703629   -7.756292 H        1 UNL1     0.0429
     89 H         2.439515   1.168871   -7.111006 H        1 UNL1     0.0429
     90 H         -0.222143   1.915379   -8.222275 H        1 UNL1     0.0308
     91 H         1.276379   -0.714956   -7.740172 H        1 UNL1     0.0233
     92 H         -0.369994   -0.649108   -8.418857 H        1 UNL1     0.0233
     93 H         0.970991   0.068122   -9.286003 H        1 UNL1     0.0233
     94 H         -1.372942   0.250702   -6.587195 H        1 UNL1     0.0233
     95 H         -0.070699   0.71645   -5.481948 H        1 UNL1     0.0233
     96 H         -1.178734   1.952829   -6.120397 H        1 UNL1     0.0233
     97 H         -0.425394   11.528001   0.427594 H        1 UNL1     0.0280
     98 H         -1.525616   10.357315   1.103017 H        1 UNL1     0.0280
     99 H         0.062298   10.633291   1.878966 H        1 UNL1     0.0280
     100 H         1.593863   11.088141   -2.1604 H        1 UNL1     0.2922
     101 H         4.120996   2.650635   2.309122 H        1 UNL1     0.0236
     102 H         5.386597   2.515628   1.026122 H        1 UNL1     0.0236
     103 H         4.499634   1.125669   1.570922 H        1 UNL1     0.0236
     104 H         3.643016   0.344814   -0.27436 H        1 UNL1     0.2098
     105 H         -0.207002   -1.481558   0.879162 H        1 UNL1     0.0234
     106 H         -1.12841   0.001162   1.25817 H        1 UNL1     0.0234
     107 H         0.0   0.0   0.0 H        1 UNL1     0.0234
     108 H         -0.136738   2.199029   3.836199 H        1 UNL1     0.2098
     109 H         -1.12703   2.061635   0.968555 H        1 UNL1     0.0234
     110 H         -2.477752   1.042389   0.377378 H        1 UNL1     0.0234
     111 H         -2.716994   2.730206   0.665271 H        1 UNL1     0.0234
     112 H         -0.462887   -2.811332   1.069439 H        1 UNL1     0.0342
     113 H         -1.078581   -1.201526   0.552057 H        1 UNL1     0.0342
     114 H         -0.216763   -1.378321   2.083064 H        1 UNL1     0.0342
     115 H         -2.326284   0.300431   5.789243 H        1 UNL1     0.0234
     116 H         -0.845995   -0.546771   6.249436 H        1 UNL1     0.0234
     117 H         -0.882596   1.193443   5.897349 H        1 UNL1     0.0234
     118 H         -2.443454   7.188042   0.725438 H        1 UNL1     0.0309
     119 H         -2.173573   5.43729   0.460689 H        1 UNL1     0.0309
     120 H         -2.755932   6.056805   1.990138 H        1 UNL1     0.0309
     121 H         -0.271949   1.536567   5.594269 H        1 UNL1     0.0524
     122 H         -0.247444   1.477631   3.827129 H        1 UNL1     0.0524
     123 H         0.210251   2.981679   4.665042 H        1 UNL1     0.0524
@<TRIPOS>BOND
     1     1     2    1
     2     1    42    1
     3     2     3    2
     4     3     4    1
     5     4     5    2
     6     5     7    1
     7     6    75    1
     8     6    76    1
     9     6    77    1
    10     7     9   am
    11     9    10    1
    12    10    11    2
    13    10    43    1
    14    11    14    1
    15    11    15    1
    16    12    13   ar
    17    12    27   ar
    18    12    43    1
    19    13    14    1
    20    13    30   ar
    21    14    17    2
    22    15    16    1
    23    16    17    1
    24    16    18    1
    25    16    22    1
    26    18    19    1
    27    19    20    1
    28    20    21    1
    29    21    22    1
    30    23    24    1
    31    23    88    1
    32    23    89    1
    33    24    25    1
    34    24    26    1
    35    24    90    1
    36    25    91    1
    37    25    92    1
    38    25    93    1
    39    26    94    1
    40    26    95    1
    41    26    96    1
    42    27    28   ar
    43    28    29   ar
    44    29    30   ar
    45    29    31    1
    46    30    33    1
    47    31    32    1
    48    32    33    1
    49    32    35    1
    50    34    97    1
    51    34    98    1
    52    34    99    1
    53    35    61    1
    54    36    37    1
    55    36    60    1
    56    37    38    1
    57    38    39    1
    58    39    40    1
    59    40    41    1
    60    41    42    1
    61    45   100    1
    62    47   101    1
    63    47   102    1
    64    47   103    1
    65    48   104    1
    66    49   105    1
    67    49   106    1
    68    49   107    1
    69    50   108    1
    70    51    59    1
    71    52   109    1
    72    52   110    1
    73    52   111    1
    74    53    54    1
    75    54    55    2
    76    54    56    1
    77    56   112    1
    78    56   113    1
    79    56   114    1
    80    57   115    1
    81    57   116    1
    82    57   117    1
    83    58   118    1
    84    58   119    1
    85    58   120    1
    86    59   121    1
    87    59   122    1
    88    59   123    1
    89    60    61    2
    90     1    47    1
    91     1    62    1
    92     2    63    1
    93     3    64    1
    94     4    65    1
    95     5     6    1
    96     7     8    2
    97     9    78    1
    98    15    79    1
    99    18    80    1
   100    18    81    1
   101    19    82    1
   102    19    83    1
   103    20    23    1
   104    21    84    1
   105    21    85    1
   106    22    86    1
   107    22    87    1
   108    27    45    1
   109    28    34    1
   110    32    58    1
   111    33    46    2
   112    36    51    1
   113    36    66    1
   114    37    52    1
   115    37    67    1
   116    38    53    1
   117    38    68    1
   118    42    48    1
   119    42    72    1
   120    43    44    2
   121    60    73    1
   122    61    74    1
   123    39    69    1
   124    39    57    1
   125    40    70    1
   126    40    50    1
   127    41    71    1
   128    41    49    1
