@<TRIPOS>MOLECULE
*****
 123 128 0 0 0
SMALL
GASTEIGER

@<TRIPOS>ATOM
     1 C         5.165649   1.749191   0.505948 C.3        1 UNL1     0.0009
     2 C         6.604289   2.55639   -0.340092 C.2        1 UNL1     -0.0787
     3 C         7.88791   2.459103   -1.002586 C.2        1 UNL1     -0.0649
     4 C         8.76694   3.695078   -1.754935 C.2        1 UNL1     -0.0542
     5 C         9.789298   3.98876   -2.690677 C.2        1 UNL1     0.0115
     6 C         10.919911   3.364327   -3.553881 C.3        1 UNL1     -0.0348
     7 C         9.885763   5.47252   -3.29577 C.2        1 UNL1     0.2441
     8 O         10.708426   6.294113   -2.915327 O.2        1 UNL1     -0.2702
     9 N         9.138504   5.680187   -4.468216 N.am        1 UNL1     -0.2772
     10 C         7.854869   6.066245   -4.15747 C.2        1 UNL1     0.1049
     11 C         7.00862   5.094354   -3.868482 C.2        1 UNL1     0.0801
     12 C         6.552366   7.671407   -2.748827 C.ar        1 UNL1     0.0753
     13 C         5.79249   6.542917   -2.304183 C.ar        1 UNL1     0.0305
     14 C         5.911472   5.237758   -2.950289 C.2        1 UNL1     0.0924
     15 N         7.132043   3.765538   -4.028296 N.pl3        1 UNL1     -0.3170
     16 C         5.861554   3.165749   -3.717868 C.3        1 UNL1     0.1275
     17 N         5.222345   4.120027   -2.738844 N.2        1 UNL1     -0.2557
     18 C         5.011952   3.225561   -4.983689 C.3        1 UNL1     0.0016
     19 C         5.769945   2.542577   -6.110884 C.3        1 UNL1     0.0026
     20 N         6.039497   1.164252   -5.72541 N.3        1 UNL1     -0.3018
     21 C         6.799701   1.003109   -4.484244 C.3        1 UNL1     0.0026
     22 C         6.017862   1.692521   -3.36472 C.3        1 UNL1     0.0016
     23 C         6.487108   0.345716   -6.834593 C.3        1 UNL1     0.0012
     24 C         5.333158   0.093031   -7.817602 C.3        1 UNL1     -0.0339
     25 C         5.351928   1.101529   -8.978049 C.3        1 UNL1     -0.0615
     26 C         5.381886   -1.339161   -8.320823 C.3        1 UNL1     -0.0615
     27 C         6.34594   8.938617   -2.208748 C.ar        1 UNL1     0.1347
     28 C         5.384329   9.207131   -1.251014 C.ar        1 UNL1     0.0342
     29 C         4.681917   8.072115   -0.793281 C.ar        1 UNL1     0.1435
     30 C         4.903041   6.790549   -1.299158 C.ar        1 UNL1     0.0774
     31 O         3.638695   8.184709   0.057611 O.3        1 UNL1     -0.4436
     32 C         2.91775   6.951789   -0.087372 C.3        1 UNL1     0.3143
     33 C         3.932708   5.959397   -0.617684 C.2        1 UNL1     0.2504
     34 C         4.935953   10.572759   -0.810425 C.3        1 UNL1     -0.0327
     35 O         2.553853   6.513956   1.227593 O.2        1 UNL1     -0.4528
     36 C         -0.687591   4.581129   0.821003 C.3        1 UNL1     0.0854
     37 C         -0.990213   3.321155   -0.078111 C.3        1 UNL1     0.0236
     38 C         -1.592423   2.059322   0.707297 C.3        1 UNL1     0.1131
     39 C         -0.86986   1.527589   2.010152 C.3        1 UNL1     0.0200
     40 C         0.791264   1.382498   2.055481 C.3        1 UNL1     0.0661
     41 C         1.753863   0.614857   0.888545 C.3        1 UNL1     0.0091
     42 C         3.462789   0.978352   0.329217 C.3        1 UNL1     0.0661
     43 C         7.50535   7.464853   -3.867494 C.2        1 UNL1     0.2131
     44 O         7.906815   8.363605   -4.584298 O.2        1 UNL1     -0.2851
     45 O         7.159079   9.974317   -2.664345 O.3        1 UNL1     -0.5056
     46 O         3.948715   4.755766   -0.487797 O.2        1 UNL1     -0.2836
     47 C         5.558439   1.318717   1.944833 C.3        1 UNL1     -0.0566
     48 O         3.911556   -0.432685   0.411066 O.3        1 UNL1     -0.3909
     49 C         0.922935   0.382982   -0.353745 C.3        1 UNL1     -0.0577
     50 O         1.390093   2.600232   2.450768 O.3        1 UNL1     -0.3910
     51 O         -0.815199   4.390345   2.211956 O.3        1 UNL1     -0.3753
     52 C         0.057247   3.161878   -1.228071 C.3        1 UNL1     -0.0564
     53 O         -2.192407   1.020857   -0.194887 O.3        1 UNL1     -0.4608
     54 C         -2.414799   -0.289558   0.138702 C.2        1 UNL1     0.3042
     55 O         -1.84108   -1.281833   -0.308595 O.2        1 UNL1     -0.2512
     56 C         -3.446567   -0.469202   1.215688 C.3        1 UNL1     0.0332
     57 C         -1.594321   2.195401   3.270055 C.3        1 UNL1     -0.0567
     58 C         1.845271   7.197401   -1.174108 C.3        1 UNL1     0.0210
     59 C         -1.169252   5.560605   2.947485 C.3        1 UNL1     0.0372
     60 C         0.641809   5.210777   0.594284 C.2        1 UNL1     -0.0208
     61 C         1.552382   5.645606   1.466365 C.2        1 UNL1     0.0882
     62 H         4.689219   2.733158   0.592749 H        1 UNL1     0.0365
     63 H         6.337464   3.610031   -0.234664 H        1 UNL1     0.0576
     64 H         8.346412   1.492556   -1.223199 H        1 UNL1     0.0615
     65 H         8.278702   4.610067   -1.408667 H        1 UNL1     0.0622
     66 H         -1.43166   5.327679   0.509443 H        1 UNL1     0.0645
     67 H         -1.854281   3.630738   -0.691386 H        1 UNL1     0.0362
     68 H         -2.54052   2.495655   1.056938 H        1 UNL1     0.0741
     69 H         -1.201588   0.516245   2.203929 H        1 UNL1     0.0359
     70 H         0.900971   0.721526   2.936469 H        1 UNL1     0.0600
     71 H         1.796648   -0.406622   1.314817 H        1 UNL1     0.0348
     72 H         3.354254   1.465777   1.308988 H        1 UNL1     0.0602
     73 H         0.762304   5.408852   -0.441812 H        1 UNL1     0.0628
     74 H         1.532155   5.43412   2.535992 H        1 UNL1     0.1022
     75 H         10.964321   2.258945   -3.401593 H        1 UNL1     0.0279
     76 H         10.809019   3.447907   -4.63267 H        1 UNL1     0.0279
     77 H         11.924057   3.669072   -3.224453 H        1 UNL1     0.0279
     78 H         9.078101   4.810621   -4.993843 H        1 UNL1     0.1553
     79 H         7.799017   3.33821   -4.644307 H        1 UNL1     0.1484
     80 H         4.050319   2.734202   -4.792391 H        1 UNL1     0.0317
     81 H         4.785738   4.262455   -5.254482 H        1 UNL1     0.0317
     82 H         6.701086   3.074336   -6.35608 H        1 UNL1     0.0428
     83 H         5.147063   2.598219   -7.004177 H        1 UNL1     0.0428
     84 H         6.919531   -0.040043   -4.175561 H        1 UNL1     0.0428
     85 H         7.829949   1.371518   -4.585143 H        1 UNL1     0.0428
     86 H         6.53203   1.441615   -2.455509 H        1 UNL1     0.0317
     87 H         5.038238   1.214506   -3.242503 H        1 UNL1     0.0317
     88 H         7.282176   0.889514   -7.361323 H        1 UNL1     0.0429
     89 H         6.921905   -0.598848   -6.483133 H        1 UNL1     0.0429
     90 H         4.379718   0.191131   -7.285116 H        1 UNL1     0.0308
     91 H         6.300429   1.064163   -9.522155 H        1 UNL1     0.0233
     92 H         4.531882   0.90609   -9.672985 H        1 UNL1     0.0233
     93 H         5.222387   2.135202   -8.635157 H        1 UNL1     0.0233
     94 H         4.686028   -1.469706   -9.156631 H        1 UNL1     0.0233
     95 H         6.387671   -1.575135   -8.679534 H        1 UNL1     0.0233
     96 H         5.112663   -2.0483   -7.533035 H        1 UNL1     0.0233
     97 H         4.140736   10.52219   -0.072656 H        1 UNL1     0.0280
     98 H         5.747335   11.142682   -0.339147 H        1 UNL1     0.0280
     99 H         4.564339   11.137843   -1.680872 H        1 UNL1     0.0280
     100 H         8.082478   9.806088   -2.596112 H        1 UNL1     0.2922
     101 H         4.694867   0.883023   2.446898 H        1 UNL1     0.0236
     102 H         6.006109   2.124167   2.526062 H        1 UNL1     0.0236
     103 H         6.316063   0.517345   1.945074 H        1 UNL1     0.0236
     104 H         4.331418   -0.558472   1.284486 H        1 UNL1     0.2098
     105 H         0.712127   1.282076   -0.927332 H        1 UNL1     0.0234
     106 H         1.293813   -0.404947   -1.009142 H        1 UNL1     0.0234
     107 H         0.0   -0.0   0.0 H        1 UNL1     0.0234
     108 H         1.19073   3.25968   1.75856 H        1 UNL1     0.2098
     109 H         1.080373   3.042222   -0.845178 H        1 UNL1     0.0234
     110 H         -0.176508   2.339075   -1.912247 H        1 UNL1     0.0234
     111 H         0.084249   4.04775   -1.876489 H        1 UNL1     0.0234
     112 H         -3.573001   -1.533515   1.436137 H        1 UNL1     0.0342
     113 H         -3.19942   0.089806   2.11695 H        1 UNL1     0.0342
     114 H         -4.405457   -0.086991   0.83938 H        1 UNL1     0.0342
     115 H         -2.658533   1.926624   3.319044 H        1 UNL1     0.0234
     116 H         -1.145159   1.934266   4.230321 H        1 UNL1     0.0234
     117 H         -1.654958   3.295723   3.210426 H        1 UNL1     0.0234
     118 H         0.943002   7.683733   -0.763745 H        1 UNL1     0.0309
     119 H         2.216632   7.786129   -2.018911 H        1 UNL1     0.0309
     120 H         1.458064   6.265649   -1.600738 H        1 UNL1     0.0309
     121 H         -0.370658   6.289443   2.811841 H        1 UNL1     0.0524
     122 H         -2.102759   6.018864   2.580604 H        1 UNL1     0.0524
     123 H         -1.283961   5.321972   4.001045 H        1 UNL1     0.0524
@<TRIPOS>BOND
     1     1     2    1
     2     1    42    1
     3     2     3    2
     4     3     4    1
     5     4     5    2
     6     5     7    1
     7     6    75    1
     8     6    76    1
     9     6    77    1
    10     7     9   am
    11     9    10    1
    12    10    11    2
    13    10    43    1
    14    11    14    1
    15    11    15    1
    16    12    13   ar
    17    12    27   ar
    18    12    43    1
    19    13    14    1
    20    13    30   ar
    21    14    17    2
    22    15    16    1
    23    16    17    1
    24    16    18    1
    25    16    22    1
    26    18    19    1
    27    19    20    1
    28    20    21    1
    29    21    22    1
    30    23    24    1
    31    23    88    1
    32    23    89    1
    33    24    25    1
    34    24    26    1
    35    24    90    1
    36    25    91    1
    37    25    92    1
    38    25    93    1
    39    26    94    1
    40    26    95    1
    41    26    96    1
    42    27    28   ar
    43    28    29   ar
    44    29    30   ar
    45    29    31    1
    46    30    33    1
    47    31    32    1
    48    32    33    1
    49    32    35    1
    50    34    97    1
    51    34    98    1
    52    34    99    1
    53    35    61    1
    54    36    37    1
    55    36    60    1
    56    37    38    1
    57    38    39    1
    58    39    40    1
    59    40    41    1
    60    41    42    1
    61    45   100    1
    62    47   101    1
    63    47   102    1
    64    47   103    1
    65    48   104    1
    66    49   105    1
    67    49   106    1
    68    49   107    1
    69    50   108    1
    70    51    59    1
    71    52   109    1
    72    52   110    1
    73    52   111    1
    74    53    54    1
    75    54    55    2
    76    54    56    1
    77    56   112    1
    78    56   113    1
    79    56   114    1
    80    57   115    1
    81    57   116    1
    82    57   117    1
    83    58   118    1
    84    58   119    1
    85    58   120    1
    86    59   121    1
    87    59   122    1
    88    59   123    1
    89    60    61    2
    90     1    47    1
    91     1    62    1
    92     2    63    1
    93     3    64    1
    94     4    65    1
    95     5     6    1
    96     7     8    2
    97     9    78    1
    98    15    79    1
    99    18    80    1
   100    18    81    1
   101    19    82    1
   102    19    83    1
   103    20    23    1
   104    21    84    1
   105    21    85    1
   106    22    86    1
   107    22    87    1
   108    27    45    1
   109    28    34    1
   110    32    58    1
   111    33    46    2
   112    36    51    1
   113    36    66    1
   114    37    52    1
   115    37    67    1
   116    38    53    1
   117    38    68    1
   118    42    48    1
   119    42    72    1
   120    43    44    2
   121    60    73    1
   122    61    74    1
   123    39    69    1
   124    39    57    1
   125    40    70    1
   126    40    50    1
   127    41    71    1
   128    41    49    1
