@<TRIPOS>MOLECULE
*****
 123 128 0 0 0
SMALL
GASTEIGER

@<TRIPOS>ATOM
     1 C         5.157809   1.786689   0.451686 C.3        1 UNL1     0.0009
     2 C         6.587609   2.588242   -0.414467 C.2        1 UNL1     -0.0787
     3 C         7.868444   2.487519   -1.081822 C.2        1 UNL1     -0.0649
     4 C         8.736685   3.716159   -1.858326 C.2        1 UNL1     -0.0542
     5 C         9.752684   4.000501   -2.803828 C.2        1 UNL1     0.0115
     6 C         10.882507   3.368631   -3.662643 C.3        1 UNL1     -0.0348
     7 C         9.83771   5.474876   -3.433096 C.2        1 UNL1     0.2441
     8 O         10.657582   6.307058   -3.070043 O.2        1 UNL1     -0.2702
     9 N         9.08345   5.659515   -4.604912 N.am        1 UNL1     -0.2772
     10 C         7.799209   6.043322   -4.293881 C.2        1 UNL1     0.1049
     11 C         6.95994   5.071476   -3.98507 C.2        1 UNL1     0.0801
     12 C         6.494654   7.663572   -2.904544 C.ar        1 UNL1     0.0753
     13 C         5.743419   6.538131   -2.438028 C.ar        1 UNL1     0.0305
     14 C         5.866586   5.223456   -3.063737 C.2        1 UNL1     0.0924
     15 N         7.090105   3.740977   -4.124199 N.pl3        1 UNL1     -0.3170
     16 C         5.824604   3.139148   -3.79776 C.3        1 UNL1     0.1275
     17 N         5.184876   4.105424   -2.830918 N.2        1 UNL1     -0.2557
     18 C         4.968378   3.173883   -5.060049 C.3        1 UNL1     0.0016
     19 C         5.724608   2.477148   -6.179989 C.3        1 UNL1     0.0026
     20 N         6.003896   1.106717   -5.773855 N.3        1 UNL1     -0.3018
     21 C         6.771179   0.96977   -4.534141 C.3        1 UNL1     0.0026
     22 C         5.991028   1.672675   -3.421853 C.3        1 UNL1     0.0016
     23 C         6.450612   0.273002   -6.872039 C.3        1 UNL1     0.0012
     24 C         5.294315   0.001732   -7.847306 C.3        1 UNL1     -0.0339
     25 C         5.38098   0.906071   -9.087756 C.3        1 UNL1     -0.0615
     26 C         5.268147   -1.468358   -8.228007 C.3        1 UNL1     -0.0615
     27 C         6.283733   8.938112   -2.383796 C.ar        1 UNL1     0.1347
     28 C         5.325398   9.216578   -1.425619 C.ar        1 UNL1     0.0342
     29 C         4.631729   8.085142   -0.946203 C.ar        1 UNL1     0.1435
     30 C         4.8576   6.796879   -1.432599 C.ar        1 UNL1     0.0774
     31 O         3.592139   8.205539   -0.091942 O.3        1 UNL1     -0.4436
     32 C         2.877489   6.966437   -0.213494 C.3        1 UNL1     0.3143
     33 C         3.895408   5.971355   -0.732982 C.2        1 UNL1     0.2504
     34 C         4.87148   10.586571   -1.004696 C.3        1 UNL1     -0.0327
     35 O         2.522641   6.547735   1.110146 O.2        1 UNL1     -0.4528
     36 C         -0.709767   4.590526   0.751027 C.3        1 UNL1     0.0854
     37 C         -1.009711   3.314611   -0.12624 C.3        1 UNL1     0.0236
     38 C         -1.600827   2.062196   0.682328 C.3        1 UNL1     0.1131
     39 C         -0.868774   1.555492   1.989852 C.3        1 UNL1     0.0200
     40 C         0.793352   1.420443   2.02907 C.3        1 UNL1     0.0661
     41 C         1.754465   0.639571   0.869713 C.3        1 UNL1     0.0091
     42 C         3.458491   1.003598   0.295969 C.3        1 UNL1     0.0661
     43 C         7.443207   7.444426   -4.02458 C.2        1 UNL1     0.2131
     44 O         7.835988   8.333791   -4.757718 O.2        1 UNL1     -0.2851
     45 O         7.0887   9.9709   -2.860047 O.3        1 UNL1     -0.5056
     46 O         3.918893   4.770073   -0.583912 O.2        1 UNL1     -0.2836
     47 C         5.560201   1.381568   1.895271 C.3        1 UNL1     -0.0566
     48 O         3.915662   -0.403411   0.398135 O.3        1 UNL1     -0.3909
     49 C         0.918685   0.383142   -0.364471 C.3        1 UNL1     -0.0577
     50 O         1.387222   2.647695   2.401754 O.3        1 UNL1     -0.3910
     51 O         -0.829357   4.421379   2.145487 O.3        1 UNL1     -0.3753
     52 C         0.032893   3.142762   -1.2788 C.3        1 UNL1     -0.0564
     53 O         -2.199396   1.006045   -0.200047 O.3        1 UNL1     -0.4608
     54 C         -2.393959   -0.304864   0.148652 C.2        1 UNL1     0.3042
     55 O         -1.74345   -1.280949   -0.222744 O.2        1 UNL1     -0.2512
     56 C         -3.504415   -0.504922   1.140407 C.3        1 UNL1     0.0332
     57 C         -1.590726   2.239374   3.242554 C.3        1 UNL1     -0.0567
     58 C         1.798231   7.188572   -1.298569 C.3        1 UNL1     0.0210
     59 C         -1.147789   5.609667   2.868285 C.3        1 UNL1     0.0372
     60 C         0.614892   5.223882   0.507507 C.2        1 UNL1     -0.0208
     61 C         1.527317   5.67774   1.367878 C.2        1 UNL1     0.0882
     62 H         4.67624   2.769242   0.525127 H        1 UNL1     0.0365
     63 H         6.315338   3.64193   -0.324579 H        1 UNL1     0.0576
     64 H         8.33132   1.520136   -1.289245 H        1 UNL1     0.0615
     65 H         8.244993   4.633841   -1.524288 H        1 UNL1     0.0622
     66 H         -1.459605   5.327805   0.431325 H        1 UNL1     0.0645
     67 H         -1.878567   3.609473   -0.740004 H        1 UNL1     0.0362
     68 H         -2.549631   2.498773   1.02974 H        1 UNL1     0.0741
     69 H         -1.193787   0.545548   2.201487 H        1 UNL1     0.0359
     70 H         0.911198   0.774319   2.919967 H        1 UNL1     0.0600
     71 H         1.805171   -0.37468   1.312072 H        1 UNL1     0.0348
     72 H         3.352075   1.50607   1.268344 H        1 UNL1     0.0602
     73 H         0.729095   5.405975   -0.532228 H        1 UNL1     0.0628
     74 H         1.513621   5.483337   2.440845 H        1 UNL1     0.1022
     75 H         10.882644   2.257234   -3.553865 H        1 UNL1     0.0279
     76 H         10.803567   3.498586   -4.739653 H        1 UNL1     0.0279
     77 H         11.887908   3.622473   -3.295992 H        1 UNL1     0.0279
     78 H         9.025364   4.7813   -5.116228 H        1 UNL1     0.1553
     79 H         7.756416   3.307556   -4.736661 H        1 UNL1     0.1484
     80 H         4.010515   2.680285   -4.856027 H        1 UNL1     0.0317
     81 H         4.734936   4.205016   -5.346268 H        1 UNL1     0.0317
     82 H         6.651482   3.010105   -6.438394 H        1 UNL1     0.0428
     83 H         5.096976   2.514961   -7.070887 H        1 UNL1     0.0428
     84 H         6.898464   -0.067607   -4.209397 H        1 UNL1     0.0428
     85 H         7.798804   1.34227   -4.646155 H        1 UNL1     0.0428
     86 H         6.511137   1.439274   -2.511359 H        1 UNL1     0.0317
     87 H         5.014755   1.19121   -3.287024 H        1 UNL1     0.0317
     88 H         7.242149   0.811388   -7.409537 H        1 UNL1     0.0429
     89 H         6.889689   -0.664721   -6.507812 H        1 UNL1     0.0429
     90 H         4.34252   0.196489   -7.339004 H        1 UNL1     0.0308
     91 H         6.335779   0.778964   -9.606702 H        1 UNL1     0.0233
     92 H         4.564542   0.690294   -9.780922 H        1 UNL1     0.0233
     93 H         5.295036   1.970001   -8.835761 H        1 UNL1     0.0233
     94 H         4.611966   -1.623337   -9.091282 H        1 UNL1     0.0233
     95 H         6.272742   -1.800737   -8.504186 H        1 UNL1     0.0233
     96 H         4.905759   -2.087859   -7.402864 H        1 UNL1     0.0233
     97 H         4.025558   10.544602   -0.325074 H        1 UNL1     0.0280
     98 H         5.657698   11.137598   -0.47226 H        1 UNL1     0.0280
     99 H         4.572126   11.1655   -1.893698 H        1 UNL1     0.0280
     100 H         6.619714   10.742873   -3.124115 H        1 UNL1     0.2922
     101 H         4.677642   1.055351   2.445113 H        1 UNL1     0.0236
     102 H         6.105501   2.162967   2.42352 H        1 UNL1     0.0236
     103 H         6.235706   0.509942   1.90772 H        1 UNL1     0.0236
     104 H         4.250188   -0.539654   1.306155 H        1 UNL1     0.2098
     105 H         0.69929   1.271833   -0.950907 H        1 UNL1     0.0234
     106 H         1.291173   -0.41261   -1.00942 H        1 UNL1     0.0234
     107 H         0.0   -0.0   0.0 H        1 UNL1     0.0234
     108 H         1.237087   3.276689   1.669911 H        1 UNL1     0.2098
     109 H         1.06068   3.053577   -0.900105 H        1 UNL1     0.0234
     110 H         -0.189534   2.29655   -1.937735 H        1 UNL1     0.0234
     111 H         0.038459   4.010217   -1.952178 H        1 UNL1     0.0234
     112 H         -3.592814   -1.566395   1.391022 H        1 UNL1     0.0342
     113 H         -3.366574   0.097981   2.036706 H        1 UNL1     0.0342
     114 H         -4.445918   -0.190567   0.669326 H        1 UNL1     0.0342
     115 H         -2.677398   2.077963   3.225847 H        1 UNL1     0.0234
     116 H         -1.222262   1.8937   4.210435 H        1 UNL1     0.0234
     117 H         -1.538849   3.341711   3.232332 H        1 UNL1     0.0234
     118 H         0.893435   7.672144   -0.890515 H        1 UNL1     0.0309
     119 H         2.160725   7.769653   -2.15247 H        1 UNL1     0.0309
     120 H         1.417505   6.248027   -1.711521 H        1 UNL1     0.0309
     121 H         -0.772008   5.488482   3.883893 H        1 UNL1     0.0524
     122 H         -0.663384   6.502684   2.439438 H        1 UNL1     0.0524
     123 H         -2.22296   5.764268   2.882389 H        1 UNL1     0.0524
@<TRIPOS>BOND
     1     1     2    1
     2     1    42    1
     3     2     3    2
     4     3     4    1
     5     4     5    2
     6     5     7    1
     7     6    75    1
     8     6    76    1
     9     6    77    1
    10     7     9   am
    11     9    10    1
    12    10    11    2
    13    10    43    1
    14    11    14    1
    15    11    15    1
    16    12    13   ar
    17    12    27   ar
    18    12    43    1
    19    13    14    1
    20    13    30   ar
    21    14    17    2
    22    15    16    1
    23    16    17    1
    24    16    18    1
    25    16    22    1
    26    18    19    1
    27    19    20    1
    28    20    21    1
    29    21    22    1
    30    23    24    1
    31    23    88    1
    32    23    89    1
    33    24    25    1
    34    24    26    1
    35    24    90    1
    36    25    91    1
    37    25    92    1
    38    25    93    1
    39    26    94    1
    40    26    95    1
    41    26    96    1
    42    27    28   ar
    43    28    29   ar
    44    29    30   ar
    45    29    31    1
    46    30    33    1
    47    31    32    1
    48    32    33    1
    49    32    35    1
    50    34    97    1
    51    34    98    1
    52    34    99    1
    53    35    61    1
    54    36    37    1
    55    36    60    1
    56    37    38    1
    57    38    39    1
    58    39    40    1
    59    40    41    1
    60    41    42    1
    61    45   100    1
    62    47   101    1
    63    47   102    1
    64    47   103    1
    65    48   104    1
    66    49   105    1
    67    49   106    1
    68    49   107    1
    69    50   108    1
    70    51    59    1
    71    52   109    1
    72    52   110    1
    73    52   111    1
    74    53    54    1
    75    54    55    2
    76    54    56    1
    77    56   112    1
    78    56   113    1
    79    56   114    1
    80    57   115    1
    81    57   116    1
    82    57   117    1
    83    58   118    1
    84    58   119    1
    85    58   120    1
    86    59   121    1
    87    59   122    1
    88    59   123    1
    89    60    61    2
    90     1    47    1
    91     1    62    1
    92     2    63    1
    93     3    64    1
    94     4    65    1
    95     5     6    1
    96     7     8    2
    97     9    78    1
    98    15    79    1
    99    18    80    1
   100    18    81    1
   101    19    82    1
   102    19    83    1
   103    20    23    1
   104    21    84    1
   105    21    85    1
   106    22    86    1
   107    22    87    1
   108    27    45    1
   109    28    34    1
   110    32    58    1
   111    33    46    2
   112    36    51    1
   113    36    66    1
   114    37    52    1
   115    37    67    1
   116    38    53    1
   117    38    68    1
   118    42    48    1
   119    42    72    1
   120    43    44    2
   121    60    73    1
   122    61    74    1
   123    39    69    1
   124    39    57    1
   125    40    70    1
   126    40    50    1
   127    41    71    1
   128    41    49    1
