@<TRIPOS>MOLECULE
*****
 123 128 0 0 0
SMALL
GASTEIGER

@<TRIPOS>ATOM
     1 C         5.166247   1.760888   0.456549 C.3        1 UNL1     0.0009
     2 C         6.595487   2.569824   -0.403644 C.2        1 UNL1     -0.0787
     3 C         7.873205   2.474213   -1.077693 C.2        1 UNL1     -0.0649
     4 C         8.742855   3.710934   -1.839656 C.2        1 UNL1     -0.0542
     5 C         9.756044   4.005406   -2.785073 C.2        1 UNL1     0.0115
     6 C         10.879986   3.382078   -3.657735 C.3        1 UNL1     -0.0348
     7 C         9.84401   5.488548   -3.392971 C.2        1 UNL1     0.2441
     8 O         10.66846   6.312285   -3.02113 O.2        1 UNL1     -0.2702
     9 N         9.085672   5.693161   -4.558822 N.am        1 UNL1     -0.2772
     10 C         7.804154   6.077074   -4.236884 C.2        1 UNL1     0.1049
     11 C         6.962527   5.103884   -3.938909 C.2        1 UNL1     0.0801
     12 C         6.511338   7.681512   -2.818526 C.ar        1 UNL1     0.0753
     13 C         5.757813   6.552104   -2.365485 C.ar        1 UNL1     0.0305
     14 C         5.873514   5.246324   -3.010933 C.2        1 UNL1     0.0924
     15 N         7.087151   3.775105   -4.098096 N.pl3        1 UNL1     -0.3170
     16 C         5.820752   3.173199   -3.7753 C.3        1 UNL1     0.1275
     17 N         5.188588   4.127505   -2.79174 N.2        1 UNL1     -0.2557
     18 C         4.959521   3.22963   -5.033393 C.3        1 UNL1     0.0016
     19 C         5.708568   2.546656   -6.166559 C.3        1 UNL1     0.0026
     20 N         5.984389   1.169386   -5.781749 N.3        1 UNL1     -0.3018
     21 C         6.756205   1.011413   -4.54736 C.3        1 UNL1     0.0026
     22 C         5.983229   1.700757   -3.421657 C.3        1 UNL1     0.0016
     23 C         6.423504   0.350266   -6.893893 C.3        1 UNL1     0.0012
     24 C         5.262233   0.097612   -7.86825 C.3        1 UNL1     -0.0339
     25 C         5.60935   0.567008   -9.290654 C.3        1 UNL1     -0.0615
     26 C         4.871649   -1.369909   -7.843601 C.3        1 UNL1     -0.0615
     27 C         6.307306   8.949027   -2.278253 C.ar        1 UNL1     0.1347
     28 C         5.353934   9.2169   -1.312139 C.ar        1 UNL1     0.0342
     29 C         4.658004   8.081098   -0.846524 C.ar        1 UNL1     0.1435
     30 C         4.877075   6.799301   -1.352712 C.ar        1 UNL1     0.0774
     31 O         3.622363   8.192745   0.013702 O.3        1 UNL1     -0.4436
     32 C         2.9026   6.958199   -0.123076 C.3        1 UNL1     0.3143
     33 C         3.914667   5.967126   -0.661321 C.2        1 UNL1     0.2504
     34 C         4.906858   10.582218   -0.869273 C.3        1 UNL1     -0.0327
     35 O         2.551591   6.521394   1.195729 O.2        1 UNL1     -0.4528
     36 C         -0.689543   4.58157   0.821274 C.3        1 UNL1     0.0854
     37 C         -0.997827   3.319797   -0.073384 C.3        1 UNL1     0.0236
     38 C         -1.590316   2.057815   0.719144 C.3        1 UNL1     0.1131
     39 C         -0.854833   1.529259   2.01605 C.3        1 UNL1     0.0200
     40 C         0.806922   1.387541   2.046411 C.3        1 UNL1     0.0661
     41 C         1.760375   0.620266   0.871751 C.3        1 UNL1     0.0091
     42 C         3.463395   0.986421   0.296376 C.3        1 UNL1     0.0661
     43 C         7.45449   7.475367   -3.94557 C.2        1 UNL1     0.2131
     44 O         7.847597   8.373962   -4.667188 O.2        1 UNL1     -0.2851
     45 O         7.114176   9.985738   -2.742612 O.3        1 UNL1     -0.5056
     46 O         3.934272   4.763703   -0.530003 O.2        1 UNL1     -0.2836
     47 C         5.573008   1.333116   1.892355 C.3        1 UNL1     -0.0566
     48 O         3.915719   -0.423609   0.375981 O.3        1 UNL1     -0.3909
     49 C         0.918616   0.385079   -0.3626 C.3        1 UNL1     -0.0577
     50 O         1.406889   2.606992   2.434616 O.3        1 UNL1     -0.3910
     51 O         -0.804075   4.392385   2.213583 O.3        1 UNL1     -0.3753
     52 C         0.039417   3.161076   -1.232643 C.3        1 UNL1     -0.0564
     53 O         -2.19642   1.016954   -0.176162 O.3        1 UNL1     -0.4608
     54 C         -2.394455   -0.298215   0.154053 C.2        1 UNL1     0.3042
     55 O         -1.720234   -1.265935   -0.196349 O.2        1 UNL1     -0.2512
     56 C         -3.544652   -0.515234   1.095682 C.3        1 UNL1     0.0332
     57 C         -1.56911   2.197305   3.281632 C.3        1 UNL1     -0.0567
     58 C         1.819763   7.200224   -1.200302 C.3        1 UNL1     0.0210
     59 C         -1.115115   5.571084   2.95506 C.3        1 UNL1     0.0372
     60 C         0.636468   5.213563   0.581607 C.2        1 UNL1     -0.0208
     61 C         1.554084   5.651369   1.444771 C.2        1 UNL1     0.0882
     62 H         4.688656   2.744018   0.546399 H        1 UNL1     0.0365
     63 H         6.327523   3.623071   -0.29717 H        1 UNL1     0.0576
     64 H         8.331613   1.508289   -1.30121 H        1 UNL1     0.0615
     65 H         8.255962   4.625409   -1.490151 H        1 UNL1     0.0622
     66 H         -1.437919   5.326219   0.515534 H        1 UNL1     0.0645
     67 H         -1.868072   3.62684   -0.679156 H        1 UNL1     0.0362
     68 H         -2.536057   2.492722   1.076847 H        1 UNL1     0.0741
     69 H         -1.182751   0.517516   2.214175 H        1 UNL1     0.0359
     70 H         0.925987   0.727963   2.92723 H        1 UNL1     0.0600
     71 H         1.809095   -0.400557   1.298957 H        1 UNL1     0.0348
     72 H         3.362824   1.474934   1.276455 H        1 UNL1     0.0602
     73 H         0.747109   5.410497   -0.455805 H        1 UNL1     0.0628
     74 H         1.544038   5.441269   2.514815 H        1 UNL1     0.1022
     75 H         10.876415   2.26921   -3.565288 H        1 UNL1     0.0279
     76 H         10.797141   3.528139   -4.732385 H        1 UNL1     0.0279
     77 H         11.887816   3.626807   -3.291555 H        1 UNL1     0.0279
     78 H         9.022221   4.822777   -5.082733 H        1 UNL1     0.1553
     79 H         7.749335   3.348286   -4.719604 H        1 UNL1     0.1484
     80 H         4.00066   2.73661   -4.832684 H        1 UNL1     0.0317
     81 H         4.728767   4.265709   -5.303474 H        1 UNL1     0.0317
     82 H         6.636366   3.079943   -6.42094 H        1 UNL1     0.0428
     83 H         5.077454   2.599866   -7.054204 H        1 UNL1     0.0428
     84 H         6.880938   -0.031086   -4.238412 H        1 UNL1     0.0428
     85 H         7.784749   1.38174   -4.65814 H        1 UNL1     0.0428
     86 H         6.506171   1.452089   -2.516845 H        1 UNL1     0.0317
     87 H         5.005722   1.220954   -3.289878 H        1 UNL1     0.0317
     88 H         7.214848   0.893581   -7.426694 H        1 UNL1     0.0429
     89 H         6.860557   -0.594316   -6.54529 H        1 UNL1     0.0429
     90 H         4.378707   0.648525   -7.52461 H        1 UNL1     0.0308
     91 H         6.608567   0.233801   -9.586694 H        1 UNL1     0.0233
     92 H         4.878218   0.191674   -10.010501 H        1 UNL1     0.0233
     93 H         5.597619   1.659673   -9.384366 H        1 UNL1     0.0233
     94 H         4.261637   -1.613177   -8.720267 H        1 UNL1     0.0233
     95 H         5.768059   -1.99567   -7.872493 H        1 UNL1     0.0233
     96 H         4.298664   -1.615306   -6.945026 H        1 UNL1     0.0233
     97 H         4.063564   10.533374   -0.186851 H        1 UNL1     0.0280
     98 H         5.697294   11.122466   -0.332058 H        1 UNL1     0.0280
     99 H         4.606045   11.175247   -1.748434 H        1 UNL1     0.0280
     100 H         6.647004   10.763228   -2.993377 H        1 UNL1     0.2922
     101 H         4.691485   1.002099   2.440991 H        1 UNL1     0.0236
     102 H         6.123373   2.104657   2.429762 H        1 UNL1     0.0236
     103 H         6.245296   0.458924   1.889213 H        1 UNL1     0.0236
     104 H         4.253434   -0.574411   1.280513 H        1 UNL1     0.2098
     105 H         0.700152   1.283093   -0.935012 H        1 UNL1     0.0234
     106 H         1.285495   -0.402472   -1.020697 H        1 UNL1     0.0234
     107 H         0.0   -0.0   0.0 H        1 UNL1     0.0234
     108 H         1.256121   3.247222   1.712714 H        1 UNL1     0.2098
     109 H         1.068401   3.062557   -0.859549 H        1 UNL1     0.0234
     110 H         -0.188855   2.325464   -1.903006 H        1 UNL1     0.0234
     111 H         0.045477   4.038308   -1.893228 H        1 UNL1     0.0234
     112 H         -3.634568   -1.579334   1.334329 H        1 UNL1     0.0342
     113 H         -3.45057   0.081748   2.001554 H        1 UNL1     0.0342
     114 H         -4.467762   -0.205009   0.586966 H        1 UNL1     0.0342
     115 H         -2.657145   2.045477   3.263838 H        1 UNL1     0.0234
     116 H         -1.202223   1.831666   4.242751 H        1 UNL1     0.0234
     117 H         -1.507826   3.29917   3.290551 H        1 UNL1     0.0234
     118 H         0.918451   7.681068   -0.781456 H        1 UNL1     0.0309
     119 H         2.180939   7.792456   -2.04707 H        1 UNL1     0.0309
     120 H         1.433845   6.267256   -1.625442 H        1 UNL1     0.0309
     121 H         -0.735651   5.433604   3.967218 H        1 UNL1     0.0524
     122 H         -0.629131   6.468522   2.537373 H        1 UNL1     0.0524
     123 H         -2.189635   5.729412   2.975877 H        1 UNL1     0.0524
@<TRIPOS>BOND
     1     1     2    1
     2     1    42    1
     3     2     3    2
     4     3     4    1
     5     4     5    2
     6     5     7    1
     7     6    75    1
     8     6    76    1
     9     6    77    1
    10     7     9   am
    11     9    10    1
    12    10    11    2
    13    10    43    1
    14    11    14    1
    15    11    15    1
    16    12    13   ar
    17    12    27   ar
    18    12    43    1
    19    13    14    1
    20    13    30   ar
    21    14    17    2
    22    15    16    1
    23    16    17    1
    24    16    18    1
    25    16    22    1
    26    18    19    1
    27    19    20    1
    28    20    21    1
    29    21    22    1
    30    23    24    1
    31    23    88    1
    32    23    89    1
    33    24    25    1
    34    24    26    1
    35    24    90    1
    36    25    91    1
    37    25    92    1
    38    25    93    1
    39    26    94    1
    40    26    95    1
    41    26    96    1
    42    27    28   ar
    43    28    29   ar
    44    29    30   ar
    45    29    31    1
    46    30    33    1
    47    31    32    1
    48    32    33    1
    49    32    35    1
    50    34    97    1
    51    34    98    1
    52    34    99    1
    53    35    61    1
    54    36    37    1
    55    36    60    1
    56    37    38    1
    57    38    39    1
    58    39    40    1
    59    40    41    1
    60    41    42    1
    61    45   100    1
    62    47   101    1
    63    47   102    1
    64    47   103    1
    65    48   104    1
    66    49   105    1
    67    49   106    1
    68    49   107    1
    69    50   108    1
    70    51    59    1
    71    52   109    1
    72    52   110    1
    73    52   111    1
    74    53    54    1
    75    54    55    2
    76    54    56    1
    77    56   112    1
    78    56   113    1
    79    56   114    1
    80    57   115    1
    81    57   116    1
    82    57   117    1
    83    58   118    1
    84    58   119    1
    85    58   120    1
    86    59   121    1
    87    59   122    1
    88    59   123    1
    89    60    61    2
    90     1    47    1
    91     1    62    1
    92     2    63    1
    93     3    64    1
    94     4    65    1
    95     5     6    1
    96     7     8    2
    97     9    78    1
    98    15    79    1
    99    18    80    1
   100    18    81    1
   101    19    82    1
   102    19    83    1
   103    20    23    1
   104    21    84    1
   105    21    85    1
   106    22    86    1
   107    22    87    1
   108    27    45    1
   109    28    34    1
   110    32    58    1
   111    33    46    2
   112    36    51    1
   113    36    66    1
   114    37    52    1
   115    37    67    1
   116    38    53    1
   117    38    68    1
   118    42    48    1
   119    42    72    1
   120    43    44    2
   121    60    73    1
   122    61    74    1
   123    39    69    1
   124    39    57    1
   125    40    70    1
   126    40    50    1
   127    41    71    1
   128    41    49    1
