@<TRIPOS>MOLECULE
*****
 123 128 0 0 0
SMALL
GASTEIGER

@<TRIPOS>ATOM
     1 C         4.970956   2.241127   0.527982 C.3        1 UNL1     0.0009
     2 C         6.357453   3.119039   -0.334533 C.2        1 UNL1     -0.0787
     3 C         7.669604   3.098476   -0.945992 C.2        1 UNL1     -0.0649
     4 C         8.454557   4.353559   -1.767559 C.2        1 UNL1     -0.0542
     5 C         9.480004   4.67384   -2.691116 C.2        1 UNL1     0.0115
     6 C         10.69864   4.099627   -3.464763 C.3        1 UNL1     -0.0348
     7 C         9.456978   6.108589   -3.410808 C.2        1 UNL1     0.2441
     8 O         10.181081   7.034607   -3.07215 O.2        1 UNL1     -0.2702
     9 N         8.740025   6.149878   -4.619288 N.am        1 UNL1     -0.2772
     10 C         7.413935   6.429714   -4.381591 C.2        1 UNL1     0.1049
     11 C         6.654439   5.40403   -4.041944 C.2        1 UNL1     0.0801
     12 C         5.90842   8.002032   -3.149288 C.ar        1 UNL1     0.0753
     13 C         5.243763   6.84159   -2.639177 C.ar        1 UNL1     0.0305
     14 C         5.513224   5.508599   -3.173572 C.2        1 UNL1     0.0924
     15 N         6.911414   4.085623   -4.08983 N.pl3        1 UNL1     -0.3170
     16 C         5.693313   3.38871   -3.772343 C.3        1 UNL1     0.1275
     17 N         4.927095   4.347803   -2.894406 N.2        1 UNL1     -0.2557
     18 C         4.892489   3.265954   -5.065136 C.3        1 UNL1     0.0016
     19 C         5.756575   2.576312   -6.10885 C.3        1 UNL1     0.0026
     20 N         6.142145   1.265445   -5.604875 N.3        1 UNL1     -0.3018
     21 C         6.864783   1.276908   -4.331285 C.3        1 UNL1     0.0026
     22 C         5.976664   1.96997   -3.296488 C.3        1 UNL1     0.0016
     23 C         6.709871   0.411964   -6.629522 C.3        1 UNL1     0.0012
     24 C         5.626127   -0.025544   -7.62744 C.3        1 UNL1     -0.0339
     25 C         5.875618   -1.4542   -8.138078 C.3        1 UNL1     -0.0615
     26 C         4.251449   0.110345   -6.996113 C.3        1 UNL1     -0.0615
     27 C         5.559825   9.280509   -2.720223 C.ar        1 UNL1     0.1347
     28 C         4.539808   9.525685   -1.818278 C.ar        1 UNL1     0.0342
     29 C         3.932416   8.365474   -1.292779 C.ar        1 UNL1     0.1435
     30 C         4.295663   7.076857   -1.686145 C.ar        1 UNL1     0.0774
     31 O         2.850455   8.439615   -0.487254 O.3        1 UNL1     -0.4436
     32 C         2.257827   7.133823   -0.554869 C.3        1 UNL1     0.3143
     33 C         3.383727   6.208857   -0.970801 C.2        1 UNL1     0.2504
     34 C         3.945025   10.870129   -1.503949 C.3        1 UNL1     -0.0327
     35 O         1.886188   6.765112   0.778994 O.2        1 UNL1     -0.4528
     36 C         -1.135567   4.494975   0.427481 C.3        1 UNL1     0.0854
     37 C         -1.279794   3.145465   -0.375977 C.3        1 UNL1     0.0236
     38 C         -1.788244   1.894717   0.489386 C.3        1 UNL1     0.1131
     39 C         -1.0698   1.53957   1.853196 C.3        1 UNL1     0.0200
     40 C         0.594489   1.563737   1.962712 C.3        1 UNL1     0.0661
     41 C         1.671788   0.807311   0.892733 C.3        1 UNL1     0.0091
     42 C         3.35851   1.293997   0.360278 C.3        1 UNL1     0.0661
     43 C         6.920239   7.805023   -4.216841 C.2        1 UNL1     0.2131
     44 O         7.261279   8.680985   -4.990869 O.2        1 UNL1     -0.2851
     45 O         6.286819   10.353329   -3.232058 O.3        1 UNL1     -0.5056
     46 O         3.510392   5.026406   -0.743602 O.2        1 UNL1     -0.2836
     47 C         5.346302   1.964282   2.008676 C.3        1 UNL1     -0.0566
     48 O         3.937447   -0.055049   0.570096 O.3        1 UNL1     -0.3909
     49 C         0.916688   0.398851   -0.352449 C.3        1 UNL1     -0.0577
     50 O         1.057253   2.861723   2.277043 O.3        1 UNL1     -0.3910
     51 O         -1.298979   4.400644   1.82456 O.3        1 UNL1     -0.3753
     52 C         -0.177328   3.002299   -1.475532 C.3        1 UNL1     -0.0564
     53 O         -2.249421   0.735256   -0.344457 O.3        1 UNL1     -0.4608
     54 C         -2.374498   -0.557829   0.091681 C.2        1 UNL1     0.3042
     55 O         -1.607506   -1.495754   -0.122463 O.2        1 UNL1     -0.2512
     56 C         -3.571675   -0.782858   0.970795 C.3        1 UNL1     0.0332
     57 C         -1.90431   2.227748   3.031407 C.3        1 UNL1     -0.0567
     58 C         1.210387   7.18716   -1.691334 C.3        1 UNL1     0.0210
     59 C         -0.784526   5.507006   2.564267 C.3        1 UNL1     0.0372
     60 C         0.134948   5.233822   0.19284 C.2        1 UNL1     -0.0208
     61 C         0.964325   5.822883   1.055328 C.2        1 UNL1     0.0882
     62 H         4.398966   3.176794   0.519822 H        1 UNL1     0.0365
     63 H         5.986489   4.146038   -0.323127 H        1 UNL1     0.0576
     64 H         8.227365   2.167965   -1.073114 H        1 UNL1     0.0615
     65 H         7.86723   5.239693   -1.512031 H        1 UNL1     0.0622
     66 H         -1.935178   5.137776   0.033175 H        1 UNL1     0.0645
     67 H         -2.144786   3.319538   -1.039337 H        1 UNL1     0.0362
     68 H         -2.78699   2.260685   0.772397 H        1 UNL1     0.0741
     69 H         -1.310015   0.518366   2.117483 H        1 UNL1     0.0359
     70 H         0.732483   0.987019   2.897279 H        1 UNL1     0.0600
     71 H         1.795861   -0.168856   1.401321 H        1 UNL1     0.0348
     72 H         3.164998   1.842583   1.29351 H        1 UNL1     0.0602
     73 H         0.276587   5.362128   -0.851538 H        1 UNL1     0.0628
     74 H         0.922379   5.693802   2.13737 H        1 UNL1     0.1022
     75 H         10.795597   3.001852   -3.284422 H        1 UNL1     0.0279
     76 H         10.654483   4.155727   -4.550107 H        1 UNL1     0.0279
     77 H         11.659984   4.468568   -3.078239 H        1 UNL1     0.0279
     78 H         8.78439   5.240569   -5.074553 H        1 UNL1     0.1553
     79 H         7.640202   3.680129   -4.647839 H        1 UNL1     0.1484
     80 H         3.97583   2.698001   -4.86531 H        1 UNL1     0.0317
     81 H         4.578366   4.251263   -5.425891 H        1 UNL1     0.0317
     82 H         6.641145   3.177155   -6.366604 H        1 UNL1     0.0428
     83 H         5.166949   2.500699   -7.023003 H        1 UNL1     0.0428
     84 H         7.072207   0.277779   -3.935648 H        1 UNL1     0.0428
     85 H         7.857956   1.736677   -4.428942 H        1 UNL1     0.0428
     86 H         6.476335   1.842328   -2.354138 H        1 UNL1     0.0317
     87 H         5.043552   1.40813   -3.16713 H        1 UNL1     0.0317
     88 H         7.471283   0.988494   -7.170964 H        1 UNL1     0.0429
     89 H         7.216699   -0.456471   -6.189385 H        1 UNL1     0.0429
     90 H         5.630711   0.65759   -8.485066 H        1 UNL1     0.0308
     91 H         6.119209   -2.133612   -7.315786 H        1 UNL1     0.0233
     92 H         4.999155   -1.833285   -8.668848 H        1 UNL1     0.0233
     93 H         6.708993   -1.503909   -8.849309 H        1 UNL1     0.0233
     94 H         3.50066   -0.394489   -7.613603 H        1 UNL1     0.0233
     95 H         4.246015   -0.358548   -6.008149 H        1 UNL1     0.0233
     96 H         3.962898   1.159876   -6.89032 H        1 UNL1     0.0233
     97 H         2.878745   10.901531   -1.707152 H        1 UNL1     0.0280
     98 H         4.056951   11.13466   -0.444349 H        1 UNL1     0.0280
     99 H         4.4365   11.643486   -2.116703 H        1 UNL1     0.0280
     100 H         5.952351   10.703501   -4.038987 H        1 UNL1     0.2922
     101 H         4.441946   1.785988   2.590061 H        1 UNL1     0.0236
     102 H         5.966838   2.745281   2.446806 H        1 UNL1     0.0236
     103 H         5.937462   1.040007   2.1202 H        1 UNL1     0.0236
     104 H         3.202444   -0.660614   0.789255 H        1 UNL1     0.2098
     105 H         0.685092   1.219542   -1.02672 H        1 UNL1     0.0234
     106 H         1.361977   -0.429052   -0.90401 H        1 UNL1     0.0234
     107 H         0.0   -0.0   0.0 H        1 UNL1     0.0234
     108 H         1.998695   2.904028   2.020788 H        1 UNL1     0.2098
     109 H         -0.484986   3.444975   -2.433183 H        1 UNL1     0.0234
     110 H         0.789202   3.419325   -1.17279 H        1 UNL1     0.0234
     111 H         0.04354   1.948678   -1.692435 H        1 UNL1     0.0234
     112 H         -4.075928   -1.710249   0.682663 H        1 UNL1     0.0342
     113 H         -3.307782   -0.793579   2.027247 H        1 UNL1     0.0342
     114 H         -4.274839   0.046255   0.811742 H        1 UNL1     0.0342
     115 H         -1.873356   1.63333   3.954932 H        1 UNL1     0.0234
     116 H         -1.571885   3.237661   3.279636 H        1 UNL1     0.0234
     117 H         -2.990206   2.26455   2.837972 H        1 UNL1     0.0234
     118 H         0.177295   7.130092   -1.306015 H        1 UNL1     0.0309
     119 H         1.308032   8.074875   -2.324287 H        1 UNL1     0.0309
     120 H         1.276679   6.325725   -2.364862 H        1 UNL1     0.0309
     121 H         -0.541583   5.150276   3.564806 H        1 UNL1     0.0524
     122 H         0.141164   5.911659   2.122236 H        1 UNL1     0.0524
     123 H         -1.525188   6.299828   2.618561 H        1 UNL1     0.0524
@<TRIPOS>BOND
     1     1     2    1
     2     1    42    1
     3     2     3    2
     4     3     4    1
     5     4     5    2
     6     5     7    1
     7     6    75    1
     8     6    76    1
     9     6    77    1
    10     7     9   am
    11     9    10    1
    12    10    11    2
    13    10    43    1
    14    11    14    1
    15    11    15    1
    16    12    13   ar
    17    12    27   ar
    18    12    43    1
    19    13    14    1
    20    13    30   ar
    21    14    17    2
    22    15    16    1
    23    16    17    1
    24    16    18    1
    25    16    22    1
    26    18    19    1
    27    19    20    1
    28    20    21    1
    29    21    22    1
    30    23    24    1
    31    23    88    1
    32    23    89    1
    33    24    25    1
    34    24    26    1
    35    24    90    1
    36    25    91    1
    37    25    92    1
    38    25    93    1
    39    26    94    1
    40    26    95    1
    41    26    96    1
    42    27    28   ar
    43    28    29   ar
    44    29    30   ar
    45    29    31    1
    46    30    33    1
    47    31    32    1
    48    32    33    1
    49    32    35    1
    50    34    97    1
    51    34    98    1
    52    34    99    1
    53    35    61    1
    54    36    37    1
    55    36    60    1
    56    37    38    1
    57    38    39    1
    58    39    40    1
    59    40    41    1
    60    41    42    1
    61    45   100    1
    62    47   101    1
    63    47   102    1
    64    47   103    1
    65    48   104    1
    66    49   105    1
    67    49   106    1
    68    49   107    1
    69    50   108    1
    70    51    59    1
    71    52   109    1
    72    52   110    1
    73    52   111    1
    74    53    54    1
    75    54    55    2
    76    54    56    1
    77    56   112    1
    78    56   113    1
    79    56   114    1
    80    57   115    1
    81    57   116    1
    82    57   117    1
    83    58   118    1
    84    58   119    1
    85    58   120    1
    86    59   121    1
    87    59   122    1
    88    59   123    1
    89    60    61    2
    90     1    47    1
    91     1    62    1
    92     2    63    1
    93     3    64    1
    94     4    65    1
    95     5     6    1
    96     7     8    2
    97     9    78    1
    98    15    79    1
    99    18    80    1
   100    18    81    1
   101    19    82    1
   102    19    83    1
   103    20    23    1
   104    21    84    1
   105    21    85    1
   106    22    86    1
   107    22    87    1
   108    27    45    1
   109    28    34    1
   110    32    58    1
   111    33    46    2
   112    36    51    1
   113    36    66    1
   114    37    52    1
   115    37    67    1
   116    38    53    1
   117    38    68    1
   118    42    48    1
   119    42    72    1
   120    43    44    2
   121    60    73    1
   122    61    74    1
   123    39    69    1
   124    39    57    1
   125    40    70    1
   126    40    50    1
   127    41    71    1
   128    41    49    1
