@<TRIPOS>MOLECULE
*****
 123 128 0 0 0
SMALL
GASTEIGER

@<TRIPOS>ATOM
     1 C         4.935325   2.370143   -0.155763 C.3        1 UNL1     0.0009
     2 C         6.121419   3.385287   -1.155613 C.2        1 UNL1     -0.0787
     3 C         7.291566   3.477193   -2.003171 C.2        1 UNL1     -0.0649
     4 C         7.891602   4.842741   -2.804167 C.2        1 UNL1     -0.0542
     5 C         8.71707   5.299556   -3.86105 C.2        1 UNL1     0.0115
     6 C         9.769618   4.857295   -4.914554 C.3        1 UNL1     -0.0348
     7 C         8.542114   6.805771   -4.388019 C.2        1 UNL1     0.2441
     8 O         9.308832   7.709799   -4.085689 O.2        1 UNL1     -0.2702
     9 N         7.605703   6.961996   -5.424783 N.am        1 UNL1     -0.2772
     10 C         6.347462   7.169862   -4.908118 C.2        1 UNL1     0.1049
     11 C         5.677471   6.088079   -4.554451 C.2        1 UNL1     0.0801
     12 C         5.091967   8.541381   -3.234798 C.ar        1 UNL1     0.0753
     13 C         4.549139   7.309339   -2.74898 C.ar        1 UNL1     0.0305
     14 C         4.723669   6.055682   -3.479003 C.2        1 UNL1     0.0924
     15 N         5.933202   4.792801   -4.806214 N.pl3        1 UNL1     -0.3170
     16 C         4.805745   4.0252   -4.348082 C.3        1 UNL1     0.1275
     17 N         4.213474   4.852262   -3.233224 N.2        1 UNL1     -0.2557
     18 C         3.772404   4.025493   -5.470538 C.3        1 UNL1     0.0016
     19 C         4.426206   3.488106   -6.733608 C.3        1 UNL1     0.0026
     20 N         4.914216   2.141282   -6.471043 N.3        1 UNL1     -0.3018
     21 C         5.86822   2.030164   -5.365648 C.3        1 UNL1     0.0026
     22 C         5.189086   2.571193   -4.106299 C.3        1 UNL1     0.0016
     23 C         5.282464   1.429477   -7.678673 C.3        1 UNL1     0.0012
     24 C         4.031279   1.074369   -8.497323 C.3        1 UNL1     -0.0339
     25 C         3.830459   2.049449   -9.669051 C.3        1 UNL1     -0.0615
     26 C         4.112981   -0.364882   -8.975511 C.3        1 UNL1     -0.0615
     27 C         4.820049   9.750418   -2.598866 C.ar        1 UNL1     0.1347
     28 C         3.990272   9.857696   -1.497044 C.ar        1 UNL1     0.0342
     29 C         3.506595   8.625969   -1.007076 C.ar        1 UNL1     0.1435
     30 C         3.799855   7.403249   -1.612199 C.ar        1 UNL1     0.0774
     31 O         2.599142   8.572466   -0.007739 O.3        1 UNL1     -0.4436
     32 C         2.017262   7.264571   -0.115893 C.3        1 UNL1     0.3143
     33 C         3.051027   6.430102   -0.844731 C.2        1 UNL1     0.2504
     34 C         3.454065   11.137427   -0.918364 C.3        1 UNL1     -0.0327
     35 O         1.912762   6.733783   1.210982 O.2        1 UNL1     -0.4528
     36 C         -1.098023   4.422544   1.173113 C.3        1 UNL1     0.0854
     37 C         -1.381035   3.169946   0.257457 C.3        1 UNL1     0.0236
     38 C         -1.701363   1.812606   1.049141 C.3        1 UNL1     0.1131
     39 C         -0.730565   1.327017   2.199803 C.3        1 UNL1     0.0200
     40 C         0.923392   1.392152   1.993352 C.3        1 UNL1     0.0661
     41 C         1.782009   0.798338   0.656276 C.3        1 UNL1     0.0091
     42 C         3.329994   1.39693   -0.125283 C.3        1 UNL1     0.0661
     43 C         5.881374   8.500624   -4.490758 C.2        1 UNL1     0.2131
     44 O         6.058631   9.469982   -5.206063 O.2        1 UNL1     -0.2851
     45 O         5.424564   10.897667   -3.10859 O.3        1 UNL1     -0.5056
     46 O         3.23049   5.234119   -0.787527 O.2        1 UNL1     -0.2836
     47 C         5.591178   1.937851   1.183253 C.3        1 UNL1     -0.0566
     48 O         3.95153   0.052112   -0.190654 O.3        1 UNL1     -0.3909
     49 C         0.805464   0.510979   -0.462329 C.3        1 UNL1     -0.0577
     50 O         1.425378   2.659863   2.365697 O.3        1 UNL1     -0.3910
     51 O         -0.988694   4.163667   2.554583 O.3        1 UNL1     -0.3753
     52 C         -0.509357   3.189236   -1.040524 C.3        1 UNL1     -0.0564
     53 O         -2.303077   0.741965   0.186591 O.3        1 UNL1     -0.4608
     54 C         -2.295834   -0.600048   0.463864 C.2        1 UNL1     0.3042
     55 O         -1.674416   -1.481656   -0.128121 O.2        1 UNL1     -0.2512
     56 C         -3.112157   -0.969433   1.669635 C.3        1 UNL1     0.0332
     57 C         -1.329457   1.848506   3.588166 C.3        1 UNL1     -0.0567
     58 C         0.770289   7.413855   -1.01828 C.3        1 UNL1     0.0210
     59 C         -1.326479   5.263085   3.399004 C.3        1 UNL1     0.0372
     60 C         0.096398   5.223986   0.790741 C.2        1 UNL1     -0.0208
     61 C         1.070456   5.736874   1.543669 C.2        1 UNL1     0.0882
     62 H         4.363407   3.281653   0.055825 H        1 UNL1     0.0365
     63 H         5.749642   4.391724   -0.952303 H        1 UNL1     0.0576
     64 H         7.823446   2.585831   -2.343295 H        1 UNL1     0.0615
     65 H         7.355842   5.674387   -2.338541 H        1 UNL1     0.0622
     66 H         -1.964746   5.080134   1.016864 H        1 UNL1     0.0645
     67 H         -2.359132   3.390829   -0.204168 H        1 UNL1     0.0362
     68 H         -2.630508   2.111363   1.558017 H        1 UNL1     0.0741
     69 H         -0.905539   0.275057   2.38194 H        1 UNL1     0.0359
     70 H         1.244181   0.716985   2.809627 H        1 UNL1     0.0600
     71 H         2.011062   -0.225123   1.012674 H        1 UNL1     0.0348
     72 H         3.314321   1.828539   0.886045 H        1 UNL1     0.0602
     73 H         0.033226   5.475516   -0.238818 H        1 UNL1     0.0628
     74 H         1.238707   5.483478   2.590913 H        1 UNL1     0.1022
     75 H         9.910094   3.749793   -4.887339 H        1 UNL1     0.0279
     76 H         9.516948   5.035828   -5.957316 H        1 UNL1     0.0279
     77 H         10.783741   5.210371   -4.676665 H        1 UNL1     0.0279
     78 H         7.570469   6.112694   -5.984713 H        1 UNL1     0.1553
     79 H         6.544924   4.477575   -5.536529 H        1 UNL1     0.1484
     80 H         2.916858   3.409129   -5.169036 H        1 UNL1     0.0317
     81 H         3.385211   5.034977   -5.64568 H        1 UNL1     0.0317
     82 H         5.2388   4.142722   -7.081574 H        1 UNL1     0.0428
     83 H         3.672493   3.498669   -7.521552 H        1 UNL1     0.0428
     84 H         6.157556   0.999523   -5.137885 H        1 UNL1     0.0428
     85 H         6.81955   2.529882   -5.594928 H        1 UNL1     0.0428
     86 H         5.861924   2.352687   -3.297885 H        1 UNL1     0.0317
     87 H         4.30378   1.968436   -3.869627 H        1 UNL1     0.0317
     88 H         5.919867   2.08846   -8.282622 H        1 UNL1     0.0429
     89 H         5.872891   0.533165   -7.448903 H        1 UNL1     0.0429
     90 H         3.150193   1.124235   -7.846621 H        1 UNL1     0.0308
     91 H         4.705355   2.067582   -10.325809 H        1 UNL1     0.0233
     92 H         2.949052   1.774941   -10.253324 H        1 UNL1     0.0233
     93 H         3.664777   3.079663   -9.331348 H        1 UNL1     0.0233
     94 H         3.356869   -0.550374   -9.746045 H        1 UNL1     0.0233
     95 H         5.095926   -0.557536   -9.414447 H        1 UNL1     0.0233
     96 H         3.949166   -1.068159   -8.154211 H        1 UNL1     0.0233
     97 H         2.747326   10.956255   -0.114046 H        1 UNL1     0.0280
     98 H         4.247795   11.76076   -0.486271 H        1 UNL1     0.0280
     99 H         2.940724   11.712255   -1.706493 H        1 UNL1     0.0280
     100 H         4.831732   11.606611   -3.286274 H        1 UNL1     0.2922
     101 H         4.842491   1.47746   1.827585 H        1 UNL1     0.0236
     102 H         6.118433   2.749226   1.683908 H        1 UNL1     0.0236
     103 H         6.354056   1.155024   1.036995 H        1 UNL1     0.0236
     104 H         4.430816   -0.092421   0.648611 H        1 UNL1     0.2098
     105 H         0.403213   1.397511   -0.946134 H        1 UNL1     0.0234
     106 H         1.164128   -0.197131   -1.209234 H        1 UNL1     0.0234
     107 H         0.0   -0.0   0.0 H        1 UNL1     0.0234
     108 H         1.098496   3.305389   1.709791 H        1 UNL1     0.2098
     109 H         0.566866   3.204376   -0.818656 H        1 UNL1     0.0234
     110 H         -0.731642   2.35989   -1.72061 H        1 UNL1     0.0234
     111 H         -0.701177   4.086731   -1.643562 H        1 UNL1     0.0234
     112 H         -3.047144   -2.047215   1.847134 H        1 UNL1     0.0342
     113 H         -2.812952   -0.409052   2.554108 H        1 UNL1     0.0342
     114 H         -4.162807   -0.725325   1.460567 H        1 UNL1     0.0342
     115 H         -2.381569   1.557943   3.71395 H        1 UNL1     0.0234
     116 H         -0.784512   1.497213   4.466618 H        1 UNL1     0.0234
     117 H         -1.403122   2.947898   3.650234 H        1 UNL1     0.0234
     118 H         -0.111825   7.761178   -0.452376 H        1 UNL1     0.0309
     119 H         0.934211   8.080648   -1.870758 H        1 UNL1     0.0309
     120 H         0.439692   6.458316   -1.439893 H        1 UNL1     0.0309
     121 H         -0.792301   5.132547   4.339732 H        1 UNL1     0.0524
     122 H         -1.014236   6.230402   2.971406 H        1 UNL1     0.0524
     123 H         -2.39799   5.285425   3.576372 H        1 UNL1     0.0524
@<TRIPOS>BOND
     1     1     2    1
     2     1    42    1
     3     2     3    2
     4     3     4    1
     5     4     5    2
     6     5     7    1
     7     6    75    1
     8     6    76    1
     9     6    77    1
    10     7     9   am
    11     9    10    1
    12    10    11    2
    13    10    43    1
    14    11    14    1
    15    11    15    1
    16    12    13   ar
    17    12    27   ar
    18    12    43    1
    19    13    14    1
    20    13    30   ar
    21    14    17    2
    22    15    16    1
    23    16    17    1
    24    16    18    1
    25    16    22    1
    26    18    19    1
    27    19    20    1
    28    20    21    1
    29    21    22    1
    30    23    24    1
    31    23    88    1
    32    23    89    1
    33    24    25    1
    34    24    26    1
    35    24    90    1
    36    25    91    1
    37    25    92    1
    38    25    93    1
    39    26    94    1
    40    26    95    1
    41    26    96    1
    42    27    28   ar
    43    28    29   ar
    44    29    30   ar
    45    29    31    1
    46    30    33    1
    47    31    32    1
    48    32    33    1
    49    32    35    1
    50    34    97    1
    51    34    98    1
    52    34    99    1
    53    35    61    1
    54    36    37    1
    55    36    60    1
    56    37    38    1
    57    38    39    1
    58    39    40    1
    59    40    41    1
    60    41    42    1
    61    45   100    1
    62    47   101    1
    63    47   102    1
    64    47   103    1
    65    48   104    1
    66    49   105    1
    67    49   106    1
    68    49   107    1
    69    50   108    1
    70    51    59    1
    71    52   109    1
    72    52   110    1
    73    52   111    1
    74    53    54    1
    75    54    55    2
    76    54    56    1
    77    56   112    1
    78    56   113    1
    79    56   114    1
    80    57   115    1
    81    57   116    1
    82    57   117    1
    83    58   118    1
    84    58   119    1
    85    58   120    1
    86    59   121    1
    87    59   122    1
    88    59   123    1
    89    60    61    2
    90     1    47    1
    91     1    62    1
    92     2    63    1
    93     3    64    1
    94     4    65    1
    95     5     6    1
    96     7     8    2
    97     9    78    1
    98    15    79    1
    99    18    80    1
   100    18    81    1
   101    19    82    1
   102    19    83    1
   103    20    23    1
   104    21    84    1
   105    21    85    1
   106    22    86    1
   107    22    87    1
   108    27    45    1
   109    28    34    1
   110    32    58    1
   111    33    46    2
   112    36    51    1
   113    36    66    1
   114    37    52    1
   115    37    67    1
   116    38    53    1
   117    38    68    1
   118    42    48    1
   119    42    72    1
   120    43    44    2
   121    60    73    1
   122    61    74    1
   123    39    69    1
   124    39    57    1
   125    40    70    1
   126    40    50    1
   127    41    71    1
   128    41    49    1
