@<TRIPOS>MOLECULE
*****
 123 128 0 0 0
SMALL
GASTEIGER

@<TRIPOS>ATOM
     1 C         5.164542   1.763926   0.464053 C.3        1 UNL1     0.0009
     2 C         6.594464   2.573946   -0.393984 C.2        1 UNL1     -0.0787
     3 C         7.873161   2.47928   -1.066307 C.2        1 UNL1     -0.0649
     4 C         8.743098   3.716719   -1.826775 C.2        1 UNL1     -0.0542
     5 C         9.7574   4.012043   -2.770731 C.2        1 UNL1     0.0115
     6 C         10.882916   3.389616   -3.642008 C.3        1 UNL1     -0.0348
     7 C         9.845293   5.495388   -3.378144 C.2        1 UNL1     0.2441
     8 O         10.66873   6.319536   -3.004973 O.2        1 UNL1     -0.2702
     9 N         9.088427   5.699826   -4.544982 N.am        1 UNL1     -0.2772
     10 C         7.806235   6.082877   -4.224704 C.2        1 UNL1     0.1049
     11 C         6.964795   5.109102   -3.92812 C.2        1 UNL1     0.0801
     12 C         6.5105   7.686177   -2.807723 C.ar        1 UNL1     0.0753
     13 C         5.757046   6.556198   -2.355991 C.ar        1 UNL1     0.0305
     14 C         5.874426   5.250648   -3.001601 C.2        1 UNL1     0.0924
     15 N         7.090448   3.780437   -4.087463 N.pl3        1 UNL1     -0.3170
     16 C         5.823976   3.177679   -3.766549 C.3        1 UNL1     0.1275
     17 N         5.189884   4.131357   -2.78362 N.2        1 UNL1     -0.2557
     18 C         4.964433   3.233896   -5.025806 C.3        1 UNL1     0.0016
     19 C         5.715448   2.551658   -6.158113 C.3        1 UNL1     0.0026
     20 N         5.991582   1.174462   -5.773264 N.3        1 UNL1     -0.3018
     21 C         6.761804   1.016656   -4.537859 C.3        1 UNL1     0.0026
     22 C         5.986867   1.70525   -3.413045 C.3        1 UNL1     0.0016
     23 C         6.432719   0.355884   -6.885007 C.3        1 UNL1     0.0012
     24 C         5.272937   0.102762   -7.861015 C.3        1 UNL1     -0.0339
     25 C         5.359037   1.025265   -9.088057 C.3        1 UNL1     -0.0615
     26 C         5.241169   -1.361388   -8.263553 C.3        1 UNL1     -0.0615
     27 C         6.304955   8.953434   -2.267418 C.ar        1 UNL1     0.1347
     28 C         5.350099   9.220488   -1.302544 C.ar        1 UNL1     0.0342
     29 C         4.654226   8.084146   -0.838161 C.ar        1 UNL1     0.1435
     30 C         4.874771   6.802608   -1.344364 C.ar        1 UNL1     0.0774
     31 O         3.617341   8.194949   0.020674 O.3        1 UNL1     -0.4436
     32 C         2.898519   6.959998   -0.117392 C.3        1 UNL1     0.3143
     33 C         3.911926   5.969675   -0.654495 C.2        1 UNL1     0.2504
     34 C         4.901584   10.585423   -0.859954 C.3        1 UNL1     -0.0327
     35 O         2.545972   6.522654   1.200824 O.2        1 UNL1     -0.4528
     36 C         -0.693462   4.580946   0.821456 C.3        1 UNL1     0.0854
     37 C         -0.999752   3.319206   -0.073934 C.3        1 UNL1     0.0236
     38 C         -1.592554   2.056667   0.717472 C.3        1 UNL1     0.1131
     39 C         -0.858525   1.52824   2.015254 C.3        1 UNL1     0.0200
     40 C         0.803274   1.387528   2.047855 C.3        1 UNL1     0.0661
     41 C         1.758801   0.621124   0.874312 C.3        1 UNL1     0.0091
     42 C         3.462383   0.98846   0.301359 C.3        1 UNL1     0.0661
     43 C         7.45532   7.480886   -3.933525 C.2        1 UNL1     0.2131
     44 O         7.848865   8.379897   -4.654384 O.2        1 UNL1     -0.2851
     45 O         7.111827   9.990751   -2.730417 O.3        1 UNL1     -0.5056
     46 O         3.932086   4.766233   -0.523447 O.2        1 UNL1     -0.2836
     47 C         5.569598   1.336048   1.900309 C.3        1 UNL1     -0.0566
     48 O         3.915458   -0.421313   0.381237 O.3        1 UNL1     -0.3909
     49 C         0.918876   0.385728   -0.361248 C.3        1 UNL1     -0.0577
     50 O         1.401964   2.607249   2.43718 O.3        1 UNL1     -0.3910
     51 O         -0.809785   4.391348   2.21356 O.3        1 UNL1     -0.3753
     52 C         0.039175   3.161403   -1.231811 C.3        1 UNL1     -0.0564
     53 O         -2.196797   1.015658   -0.178918 O.3        1 UNL1     -0.4608
     54 C         -2.394481   -0.299713   0.150702 C.2        1 UNL1     0.3042
     55 O         -1.748019   -1.272129   -0.237026 O.2        1 UNL1     -0.2512
     56 C         -3.502853   -0.511164   1.142426 C.3        1 UNL1     0.0332
     57 C         -1.574941   2.195538   3.280021 C.3        1 UNL1     -0.0567
     58 C         1.817009   7.201628   -1.196041 C.3        1 UNL1     0.0210
     59 C         -1.122558   5.569674   2.9549 C.3        1 UNL1     0.0372
     60 C         0.632489   5.213807   0.58376 C.2        1 UNL1     -0.0208
     61 C         1.548656   5.651959   1.448286 C.2        1 UNL1     0.0882
     62 H         4.686229   2.746742   0.553491 H        1 UNL1     0.0365
     63 H         6.325712   3.627003   -0.287618 H        1 UNL1     0.0576
     64 H         8.332464   1.513691   -1.289434 H        1 UNL1     0.0615
     65 H         8.255169   4.630811   -1.477712 H        1 UNL1     0.0622
     66 H         -1.441874   5.325213   0.514875 H        1 UNL1     0.0645
     67 H         -1.869354   3.625867   -0.680821 H        1 UNL1     0.0362
     68 H         -2.539049   2.490909   1.073987 H        1 UNL1     0.0741
     69 H         -1.186096   0.516249   2.212681 H        1 UNL1     0.0359
     70 H         0.921535   0.727806   2.928673 H        1 UNL1     0.0600
     71 H         1.80756   -0.399774   1.301333 H        1 UNL1     0.0348
     72 H         3.360173   1.47667   1.28142 H        1 UNL1     0.0602
     73 H         0.744431   5.411064   -0.453452 H        1 UNL1     0.0628
     74 H         1.537274   5.441589   2.518264 H        1 UNL1     0.1022
     75 H         10.879897   2.276723   -3.549839 H        1 UNL1     0.0279
     76 H         10.801453   3.535891   -4.716734 H        1 UNL1     0.0279
     77 H         11.890094   3.634869   -3.274388 H        1 UNL1     0.0279
     78 H         9.026224   4.829532   -5.069193 H        1 UNL1     0.1553
     79 H         7.753742   3.354176   -4.708169 H        1 UNL1     0.1484
     80 H         4.0056   2.740242   -4.826531 H        1 UNL1     0.0317
     81 H         4.733417   4.2699   -5.295948 H        1 UNL1     0.0317
     82 H         6.643267   3.085574   -6.411093 H        1 UNL1     0.0428
     83 H         5.085516   2.604702   -7.046608 H        1 UNL1     0.0428
     84 H         6.88675   -0.025843   -4.228997 H        1 UNL1     0.0428
     85 H         7.790272   1.387637   -4.64714 H        1 UNL1     0.0428
     86 H         6.508722   1.456678   -2.50758 H        1 UNL1     0.0317
     87 H         5.009474   1.224819   -3.282723 H        1 UNL1     0.0317
     88 H         7.224459   0.899813   -7.416592 H        1 UNL1     0.0429
     89 H         6.86987   -0.588517   -6.536039 H        1 UNL1     0.0429
     90 H         4.323138   0.292818   -7.347232 H        1 UNL1     0.0308
     91 H         6.312022   0.903002   -9.611481 H        1 UNL1     0.0233
     92 H         4.540051   0.822372   -9.782107 H        1 UNL1     0.0233
     93 H         5.277083   2.08557   -8.819964 H        1 UNL1     0.0233
     94 H         4.582165   -1.501439   -9.127229 H        1 UNL1     0.0233
     95 H         6.243972   -1.69268   -8.547442 H        1 UNL1     0.0233
     96 H         4.879104   -1.992036   -7.446755 H        1 UNL1     0.0233
     97 H         4.057387   10.535896   -0.178699 H        1 UNL1     0.0280
     98 H         5.690954   11.12602   -0.321525 H        1 UNL1     0.0280
     99 H         4.601613   11.178485   -1.739381 H        1 UNL1     0.0280
     100 H         6.644525   10.768018   -2.98163 H        1 UNL1     0.2922
     101 H         4.687528   1.004358   2.447657 H        1 UNL1     0.0236
     102 H         6.118756   2.107792   2.438658 H        1 UNL1     0.0236
     103 H         6.242423   0.462267   1.897872 H        1 UNL1     0.0236
     104 H         4.252027   -0.572133   1.286193 H        1 UNL1     0.2098
     105 H         0.700648   1.283751   -0.933737 H        1 UNL1     0.0234
     106 H         1.287136   -0.401436   -1.019036 H        1 UNL1     0.0234
     107 H         0.0   -0.0   0.0 H        1 UNL1     0.0234
     108 H         1.251793   3.247565   1.71523 H        1 UNL1     0.2098
     109 H         1.067707   3.06342   -0.857333 H        1 UNL1     0.0234
     110 H         -0.187669   2.325817   -1.902691 H        1 UNL1     0.0234
     111 H         0.045604   4.038802   -1.892172 H        1 UNL1     0.0234
     112 H         -3.593866   -1.575987   1.377404 H        1 UNL1     0.0342
     113 H         -3.360703   0.077854   2.047243 H        1 UNL1     0.0342
     114 H         -4.444652   -0.186921   0.678697 H        1 UNL1     0.0342
     115 H         -2.66215   2.037726   3.263911 H        1 UNL1     0.0234
     116 H         -1.204922   1.834313   4.241609 H        1 UNL1     0.0234
     117 H         -1.519669   3.29774   3.286118 H        1 UNL1     0.0234
     118 H         0.914832   7.681819   -0.77831 H        1 UNL1     0.0309
     119 H         2.178983   7.79429   -2.042167 H        1 UNL1     0.0309
     120 H         1.432243   6.26853   -1.621938 H        1 UNL1     0.0309
     121 H         -0.744396   5.432176   3.967543 H        1 UNL1     0.0524
     122 H         -0.636551   6.467511   2.538099 H        1 UNL1     0.0524
     123 H         -2.197202   5.727341   2.974286 H        1 UNL1     0.0524
@<TRIPOS>BOND
     1     1     2    1
     2     1    42    1
     3     2     3    2
     4     3     4    1
     5     4     5    2
     6     5     7    1
     7     6    75    1
     8     6    76    1
     9     6    77    1
    10     7     9   am
    11     9    10    1
    12    10    11    2
    13    10    43    1
    14    11    14    1
    15    11    15    1
    16    12    13   ar
    17    12    27   ar
    18    12    43    1
    19    13    14    1
    20    13    30   ar
    21    14    17    2
    22    15    16    1
    23    16    17    1
    24    16    18    1
    25    16    22    1
    26    18    19    1
    27    19    20    1
    28    20    21    1
    29    21    22    1
    30    23    24    1
    31    23    88    1
    32    23    89    1
    33    24    25    1
    34    24    26    1
    35    24    90    1
    36    25    91    1
    37    25    92    1
    38    25    93    1
    39    26    94    1
    40    26    95    1
    41    26    96    1
    42    27    28   ar
    43    28    29   ar
    44    29    30   ar
    45    29    31    1
    46    30    33    1
    47    31    32    1
    48    32    33    1
    49    32    35    1
    50    34    97    1
    51    34    98    1
    52    34    99    1
    53    35    61    1
    54    36    37    1
    55    36    60    1
    56    37    38    1
    57    38    39    1
    58    39    40    1
    59    40    41    1
    60    41    42    1
    61    45   100    1
    62    47   101    1
    63    47   102    1
    64    47   103    1
    65    48   104    1
    66    49   105    1
    67    49   106    1
    68    49   107    1
    69    50   108    1
    70    51    59    1
    71    52   109    1
    72    52   110    1
    73    52   111    1
    74    53    54    1
    75    54    55    2
    76    54    56    1
    77    56   112    1
    78    56   113    1
    79    56   114    1
    80    57   115    1
    81    57   116    1
    82    57   117    1
    83    58   118    1
    84    58   119    1
    85    58   120    1
    86    59   121    1
    87    59   122    1
    88    59   123    1
    89    60    61    2
    90     1    47    1
    91     1    62    1
    92     2    63    1
    93     3    64    1
    94     4    65    1
    95     5     6    1
    96     7     8    2
    97     9    78    1
    98    15    79    1
    99    18    80    1
   100    18    81    1
   101    19    82    1
   102    19    83    1
   103    20    23    1
   104    21    84    1
   105    21    85    1
   106    22    86    1
   107    22    87    1
   108    27    45    1
   109    28    34    1
   110    32    58    1
   111    33    46    2
   112    36    51    1
   113    36    66    1
   114    37    52    1
   115    37    67    1
   116    38    53    1
   117    38    68    1
   118    42    48    1
   119    42    72    1
   120    43    44    2
   121    60    73    1
   122    61    74    1
   123    39    69    1
   124    39    57    1
   125    40    70    1
   126    40    50    1
   127    41    71    1
   128    41    49    1
