@<TRIPOS>MOLECULE
*****
 123 128 0 0 0
SMALL
GASTEIGER

@<TRIPOS>ATOM
     1 C         -2.90781   0.546592   -4.610604 C.3        1 UNL1     0.0009
     2 C         -2.891787   1.110057   -6.376754 C.2        1 UNL1     -0.0787
     3 C         -3.225692   2.094875   -7.384072 C.2        1 UNL1     -0.0649
     4 C         -2.790774   2.098489   -9.020284 C.2        1 UNL1     -0.0542
     5 C         -2.635716   2.899247   -10.178654 C.2        1 UNL1     0.0115
     6 C         -2.914746   4.303177   -10.782348 C.3        1 UNL1     -0.0348
     7 C         -1.747972   2.342534   -11.394783 C.2        1 UNL1     0.2441
     8 O         -2.235249   1.871022   -12.412998 O.2        1 UNL1     -0.2702
     9 N         -0.382712   2.67032   -11.325682 N.am        1 UNL1     -0.2772
     10 C         0.303336   1.720253   -10.60455 C.2        1 UNL1     0.1049
     11 C         0.272368   1.852092   -9.290821 C.2        1 UNL1     0.0801
     12 C         0.632778   -0.749907   -10.387498 C.ar        1 UNL1     0.0753
     13 C         0.383829   -0.581078   -8.988166 C.ar        1 UNL1     0.0305
     14 C         0.325829   0.744308   -8.375762 C.2        1 UNL1     0.0924
     15 N         -0.145655   2.882404   -8.535678 N.pl3        1 UNL1     -0.3170
     16 C         0.192769   2.590523   -7.168006 C.3        1 UNL1     0.1275
     17 N         0.205262   1.083114   -7.095293 N.2        1 UNL1     -0.2557
     18 C         1.635973   3.036783   -6.95419 C.3        1 UNL1     0.0016
     19 C         1.751596   4.5055   -7.329811 C.3        1 UNL1     0.0026
     20 N         0.836611   5.274561   -6.497719 N.3        1 UNL1     -0.3018
     21 C         -0.569777   4.876798   -6.588407 C.3        1 UNL1     0.0026
     22 C         -0.663259   3.399562   -6.20249 C.3        1 UNL1     0.0016
     23 C         1.080219   6.701855   -6.561988 C.3        1 UNL1     0.0012
     24 C         2.398797   7.055523   -5.856279 C.3        1 UNL1     -0.0339
     25 C         2.318879   8.429547   -5.170911 C.3        1 UNL1     -0.0615
     26 C         2.772637   5.960819   -4.872079 C.3        1 UNL1     -0.0615
     27 C         0.806694   -2.015736   -10.942068 C.ar        1 UNL1     0.1347
     28 C         0.792955   -3.179549   -10.194136 C.ar        1 UNL1     0.0342
     29 C         0.497613   -2.99266   -8.827018 C.ar        1 UNL1     0.1435
     30 C         0.285302   -1.733633   -8.263995 C.ar        1 UNL1     0.0774
     31 O         0.556173   -4.016013   -7.94706 O.3        1 UNL1     -0.4436
     32 C         0.671061   -3.384168   -6.663142 C.3        1 UNL1     0.3143
     33 C         0.096055   -1.995007   -6.852387 C.2        1 UNL1     0.2504
     34 C         1.218523   -4.539884   -10.67213 C.3        1 UNL1     -0.0327
     35 O         -0.204098   -4.079339   -5.766434 O.2        1 UNL1     -0.4528
     36 C         1.381185   -3.787289   -2.329913 C.3        1 UNL1     0.0854
     37 C         1.775335   -2.491755   -1.521358 C.3        1 UNL1     0.0236
     38 C         1.140401   -2.392797   -0.052069 C.3        1 UNL1     0.1131
     39 C         -0.415301   -2.599266   0.146505 C.3        1 UNL1     0.0200
     40 C         -1.502173   -1.892087   -0.902802 C.3        1 UNL1     0.0661
     41 C         -1.510905   -0.262911   -1.37537 C.3        1 UNL1     0.0091
     42 C         -2.017151   0.514366   -2.958076 C.3        1 UNL1     0.0661
     43 C         0.788655   0.472948   -11.213687 C.2        1 UNL1     0.2131
     44 O         1.37051   0.493005   -12.283163 O.2        1 UNL1     -0.2851
     45 O         0.999315   -2.095547   -12.319735 O.3        1 UNL1     -0.5056
     46 O         -0.421882   -1.275142   -6.028137 O.2        1 UNL1     -0.2836
     47 C         -4.326897   0.05856   -4.213116 C.3        1 UNL1     -0.0566
     48 O         -2.833747   1.569249   -2.310381 O.3        1 UNL1     -0.3909
     49 C         -0.196456   0.368608   -0.974245 C.3        1 UNL1     -0.0577
     50 O         -1.728196   -2.721764   -2.02453 O.3        1 UNL1     -0.3910
     51 O         0.393784   -4.603833   -1.741928 O.3        1 UNL1     -0.3753
     52 C         1.912862   -1.243694   -2.453225 C.3        1 UNL1     -0.0564
     53 O         1.79291   -1.3566   0.815603 O.3        1 UNL1     -0.4608
     54 C         1.146072   -0.553159   1.717831 C.2        1 UNL1     0.3042
     55 O         0.844609   0.631829   1.580863 O.2        1 UNL1     -0.2512
     56 C         0.734851   -1.268298   2.973294 C.3        1 UNL1     0.0332
     57 C         -0.651719   -4.130279   0.544348 C.3        1 UNL1     -0.0567
     58 C         2.184483   -3.261926   -6.369646 C.3        1 UNL1     0.0210
     59 C         0.87506   -5.836663   -1.208666 C.3        1 UNL1     0.0372
     60 C         0.957333   -3.546263   -3.736119 C.2        1 UNL1     -0.0208
     61 C         -0.069464   -4.043633   -4.426812 C.2        1 UNL1     0.0882
     62 H         -2.342834   -0.34447   -4.909808 H        1 UNL1     0.0365
     63 H         -2.442891   0.241666   -6.863436 H        1 UNL1     0.0576
     64 H         -3.677738   3.053467   -7.119757 H        1 UNL1     0.0615
     65 H         -2.428753   1.081847   -9.195957 H        1 UNL1     0.0622
     66 H         2.312158   -4.368307   -2.391191 H        1 UNL1     0.0645
     67 H         2.844842   -2.635766   -1.289032 H        1 UNL1     0.0362
     68 H         1.612993   -3.271831   0.412127 H        1 UNL1     0.0741
     69 H         -0.702579   -2.181822   1.102339 H        1 UNL1     0.0359
     70 H         -2.428987   -1.978104   -0.303906 H        1 UNL1     0.0600
     71 H         -2.195047   0.156204   -0.611663 H        1 UNL1     0.0348
     72 H         -2.486998   -0.479805   -2.944537 H        1 UNL1     0.0602
     73 H         1.696744   -2.965292   -4.229062 H        1 UNL1     0.0628
     74 H         -0.898197   -4.598622   -3.985874 H        1 UNL1     0.1022
     75 H         -3.970819   4.610265   -10.588851 H        1 UNL1     0.0279
     76 H         -2.34915   5.132494   -10.363534 H        1 UNL1     0.0279
     77 H         -2.88593   4.306693   -11.881829 H        1 UNL1     0.0279
     78 H         -0.268582   3.560671   -10.845758 H        1 UNL1     0.1553
     79 H         -0.253911   3.818276   -8.881159 H        1 UNL1     0.1484
     80 H         1.910592   2.86867   -5.905816 H        1 UNL1     0.0317
     81 H         2.324689   2.436865   -7.55869 H        1 UNL1     0.0317
     82 H         1.548044   4.669736   -8.398223 H        1 UNL1     0.0428
     83 H         2.788796   4.802544   -7.171603 H        1 UNL1     0.0428
     84 H         -1.223539   5.415514   -5.895448 H        1 UNL1     0.0428
     85 H         -0.993182   5.094701   -7.578641 H        1 UNL1     0.0428
     86 H         -1.713486   3.179711   -6.150766 H        1 UNL1     0.0317
     87 H         -0.323559   3.260063   -5.168933 H        1 UNL1     0.0317
     88 H         1.162087   6.9871   -7.618978 H        1 UNL1     0.0429
     89 H         0.240655   7.269081   -6.139895 H        1 UNL1     0.0429
     90 H         3.206915   7.081205   -6.596886 H        1 UNL1     0.0308
     91 H         1.389348   8.537779   -4.604025 H        1 UNL1     0.0233
     92 H         3.167832   8.576056   -4.499032 H        1 UNL1     0.0233
     93 H         2.351359   9.257286   -5.889679 H        1 UNL1     0.0233
     94 H         3.455545   6.354031   -4.111252 H        1 UNL1     0.0233
     95 H         1.876768   5.59368   -4.363561 H        1 UNL1     0.0233
     96 H         3.261778   5.121968   -5.375108 H        1 UNL1     0.0233
     97 H         2.026006   -4.948468   -10.071913 H        1 UNL1     0.0280
     98 H         0.402438   -5.272112   -10.616403 H        1 UNL1     0.0280
     99 H         1.564285   -4.472542   -11.716643 H        1 UNL1     0.0280
     100 H         0.376503   -1.609361   -12.830961 H        1 UNL1     0.2922
     101 H         -4.343708   -1.030413   -4.174231 H        1 UNL1     0.0236
     102 H         -5.112455   0.457088   -4.854254 H        1 UNL1     0.0236
     103 H         -4.605144   0.379268   -3.195315 H        1 UNL1     0.0236
     104 H         -3.348983   2.015139   -3.01087 H        1 UNL1     0.2098
     105 H         0.643999   0.097577   -1.60827 H        1 UNL1     0.0234
     106 H         -0.233431   1.449283   -0.837491 H        1 UNL1     0.0234
     107 H         0.0   0.0   0.0 H        1 UNL1     0.0234
     108 H         -0.866577   -2.856301   -2.464166 H        1 UNL1     0.2098
     109 H         2.6928   -1.377812   -3.215735 H        1 UNL1     0.0234
     110 H         0.971544   -0.962304   -2.937462 H        1 UNL1     0.0234
     111 H         2.200292   -0.346735   -1.888606 H        1 UNL1     0.0234
     112 H         0.20745   -0.578265   3.638913 H        1 UNL1     0.0342
     113 H         0.129031   -2.148532   2.7635 H        1 UNL1     0.0342
     114 H         1.644188   -1.605415   3.48965 H        1 UNL1     0.0342
     115 H         -1.676323   -4.306334   0.899845 H        1 UNL1     0.0234
     116 H         -0.460311   -4.834615   -0.267639 H        1 UNL1     0.0234
     117 H         -0.063696   -4.452916   1.420747 H        1 UNL1     0.0234
     118 H         2.504332   -3.93426   -5.554373 H        1 UNL1     0.0309
     119 H         2.80894   -3.444232   -7.249999 H        1 UNL1     0.0309
     120 H         2.462322   -2.268334   -6.00129 H        1 UNL1     0.0309
     121 H         0.046775   -6.544654   -1.21576 H        1 UNL1     0.0524
     122 H         1.685913   -6.268248   -1.818821 H        1 UNL1     0.0524
     123 H         1.235859   -5.69203   -0.19427 H        1 UNL1     0.0524
@<TRIPOS>BOND
     1     1     2    1
     2     1    42    1
     3     2     3    2
     4     3     4    1
     5     4     5    2
     6     5     7    1
     7     6    75    1
     8     6    76    1
     9     6    77    1
    10     7     9   am
    11     9    10    1
    12    10    11    2
    13    10    43    1
    14    11    14    1
    15    11    15    1
    16    12    13   ar
    17    12    27   ar
    18    12    43    1
    19    13    14    1
    20    13    30   ar
    21    14    17    2
    22    15    16    1
    23    16    17    1
    24    16    18    1
    25    16    22    1
    26    18    19    1
    27    19    20    1
    28    20    21    1
    29    21    22    1
    30    23    24    1
    31    23    88    1
    32    23    89    1
    33    24    25    1
    34    24    26    1
    35    24    90    1
    36    25    91    1
    37    25    92    1
    38    25    93    1
    39    26    94    1
    40    26    95    1
    41    26    96    1
    42    27    28   ar
    43    28    29   ar
    44    29    30   ar
    45    29    31    1
    46    30    33    1
    47    31    32    1
    48    32    33    1
    49    32    35    1
    50    34    97    1
    51    34    98    1
    52    34    99    1
    53    35    61    1
    54    36    37    1
    55    36    60    1
    56    37    38    1
    57    38    39    1
    58    39    40    1
    59    40    41    1
    60    41    42    1
    61    45   100    1
    62    47   101    1
    63    47   102    1
    64    47   103    1
    65    48   104    1
    66    49   105    1
    67    49   106    1
    68    49   107    1
    69    50   108    1
    70    51    59    1
    71    52   109    1
    72    52   110    1
    73    52   111    1
    74    53    54    1
    75    54    55    2
    76    54    56    1
    77    56   112    1
    78    56   113    1
    79    56   114    1
    80    57   115    1
    81    57   116    1
    82    57   117    1
    83    58   118    1
    84    58   119    1
    85    58   120    1
    86    59   121    1
    87    59   122    1
    88    59   123    1
    89    60    61    2
    90     1    47    1
    91     1    62    1
    92     2    63    1
    93     3    64    1
    94     4    65    1
    95     5     6    1
    96     7     8    2
    97     9    78    1
    98    15    79    1
    99    18    80    1
   100    18    81    1
   101    19    82    1
   102    19    83    1
   103    20    23    1
   104    21    84    1
   105    21    85    1
   106    22    86    1
   107    22    87    1
   108    27    45    1
   109    28    34    1
   110    32    58    1
   111    33    46    2
   112    36    51    1
   113    36    66    1
   114    37    52    1
   115    37    67    1
   116    38    53    1
   117    38    68    1
   118    42    48    1
   119    42    72    1
   120    43    44    2
   121    60    73    1
   122    61    74    1
   123    39    69    1
   124    39    57    1
   125    40    70    1
   126    40    50    1
   127    41    71    1
   128    41    49    1
