@<TRIPOS>MOLECULE
*****
 123 128 0 0 0
SMALL
GASTEIGER

@<TRIPOS>ATOM
     1 C         2.999539   -3.731087   2.663365 C.3        1 UNL1     0.0009
     2 C         3.23845   -5.533711   3.024618 C.2        1 UNL1     -0.0787
     3 C         3.091023   -6.66691   3.913533 C.2        1 UNL1     -0.0649
     4 C         3.446179   -8.291553   3.596111 C.2        1 UNL1     -0.0542
     5 C         3.206154   -9.630965   3.990373 C.2        1 UNL1     0.0115
     6 C         2.572349   -10.521599   5.094178 C.3        1 UNL1     -0.0348
     7 C         3.550293   -10.81642   2.964092 C.2        1 UNL1     0.2441
     8 O         4.553349   -11.510005   3.060754 O.2        1 UNL1     -0.2702
     9 N         2.497645   -11.175149   2.104209 N.am        1 UNL1     -0.2772
     10 C         2.522897   -10.402504   0.965918 C.2        1 UNL1     0.1049
     11 C         1.955998   -9.21316   1.057067 C.2        1 UNL1     0.0801
     12 C         4.045959   -9.580759   -0.840279 C.ar        1 UNL1     0.0753
     13 C         3.546275   -8.269765   -0.557047 C.ar        1 UNL1     0.0305
     14 C         2.389123   -8.062956   0.31087 C.2        1 UNL1     0.0924
     15 N         1.168058   -8.703253   2.019187 N.pl3        1 UNL1     -0.3170
     16 C         0.675417   -7.433063   1.556397 C.3        1 UNL1     0.1275
     17 N         1.736043   -6.941468   0.601865 N.2        1 UNL1     -0.2557
     18 C         -0.562189   -7.709896   0.708225 C.3        1 UNL1     0.0016
     19 C         -1.555979   -8.502609   1.542238 C.3        1 UNL1     0.0026
     20 N         -1.895661   -7.727149   2.727272 N.3        1 UNL1     -0.3018
     21 C         -0.760386   -7.358685   3.575655 C.3        1 UNL1     0.0026
     22 C         0.222966   -6.559355   2.718925 C.3        1 UNL1     0.0016
     23 C         -3.049211   -8.250105   3.431888 C.3        1 UNL1     0.0012
     24 C         -4.330661   -8.014075   2.617068 C.3        1 UNL1     -0.0339
     25 C         -4.03768   -7.970329   1.108325 C.3        1 UNL1     -0.0615
     26 C         -5.365273   -9.073359   2.955115 C.3        1 UNL1     -0.0615
     27 C         5.071347   -9.778787   -1.761953 C.ar        1 UNL1     0.1347
     28 C         5.64621   -8.751569   -2.488869 C.ar        1 UNL1     0.0342
     29 C         5.172204   -7.464377   -2.15778 C.ar        1 UNL1     0.1435
     30 C         4.170794   -7.247296   -1.210535 C.ar        1 UNL1     0.0774
     31 O         5.554122   -6.371905   -2.854666 O.3        1 UNL1     -0.4436
     32 C         4.550864   -5.387159   -2.563768 C.3        1 UNL1     0.3143
     33 C         3.944524   -5.817439   -1.243381 C.2        1 UNL1     0.2504
     34 C         6.566335   -8.912574   -3.66681 C.3        1 UNL1     -0.0327
     35 O         5.227667   -4.146458   -2.327442 O.2        1 UNL1     -0.4528
     36 C         2.820339   -1.423077   -3.421085 C.3        1 UNL1     0.0854
     37 C         1.350606   -1.135051   -2.926668 C.3        1 UNL1     0.0236
     38 C         1.098649   0.353955   -2.387112 C.3        1 UNL1     0.1131
     39 C         2.073573   0.972755   -1.305964 C.3        1 UNL1     0.0200
     40 C         2.578499   0.061246   -0.003413 C.3        1 UNL1     0.0661
     41 C         1.576099   -0.83685   1.029171 C.3        1 UNL1     0.0091
     42 C         1.893183   -2.403582   1.929289 C.3        1 UNL1     0.0661
     43 C         3.375217   -10.731688   -0.186272 C.2        1 UNL1     0.2131
     44 O         3.422565   -11.87054   -0.614655 O.2        1 UNL1     -0.2851
     45 O         5.530855   -11.081283   -1.945786 O.3        1 UNL1     -0.5056
     46 O         3.414083   -5.131281   -0.398589 O.2        1 UNL1     -0.2836
     47 C         4.025997   -2.88092   3.459343 C.3        1 UNL1     -0.0566
     48 O         1.357687   -1.904021   3.218785 O.3        1 UNL1     -0.3909
     49 C         0.208597   -0.961224   0.395165 C.3        1 UNL1     -0.0577
     50 O         3.729291   -0.69006   -0.333473 O.3        1 UNL1     -0.3910
     51 O         3.765075   -0.407369   -3.169607 O.3        1 UNL1     -0.3753
     52 C         0.711495   -2.386764   -2.24132 C.3        1 UNL1     -0.0564
     53 O         -0.353998   0.707885   -2.2572 O.3        1 UNL1     -0.4608
     54 C         -0.899692   1.473884   -1.260509 C.2        1 UNL1     0.3042
     55 O         -1.504277   2.538476   -1.382821 O.2        1 UNL1     -0.2512
     56 C         -0.761533   0.868405   0.107343 C.3        1 UNL1     0.0332
     57 C         3.174134   1.832939   -2.085081 C.3        1 UNL1     -0.0567
     58 C         3.478377   -5.515204   -3.670523 C.3        1 UNL1     0.0210
     59 C         4.160377   0.34125   -4.318159 C.3        1 UNL1     0.0372
     60 C         3.413623   -2.693971   -2.923086 C.2        1 UNL1     -0.0208
     61 C         4.625273   -2.945868   -2.425897 C.2        1 UNL1     0.0882
     62 H         3.431704   -3.89283   1.668486 H        1 UNL1     0.0365
     63 H         3.791005   -5.847813   2.136646 H        1 UNL1     0.0576
     64 H         2.557545   -6.583976   4.863075 H        1 UNL1     0.0615
     65 H         4.040841   -8.254016   2.67935 H        1 UNL1     0.0622
     66 H         2.727265   -1.540324   -4.509955 H        1 UNL1     0.0645
     67 H         0.750773   -1.137129   -3.853359 H        1 UNL1     0.0362
     68 H         1.291284   0.919612   -3.311475 H        1 UNL1     0.0741
     69 H         1.580543   1.810974   -0.83192 H        1 UNL1     0.0359
     70 H         2.953547   0.865438   0.658158 H        1 UNL1     0.0600
     71 H         1.382679   -0.081489   1.815921 H        1 UNL1     0.0348
     72 H         2.881737   -1.995753   1.672865 H        1 UNL1     0.0602
     73 H         2.747903   -3.494785   -3.129878 H        1 UNL1     0.0628
     74 H         5.343089   -2.179091   -2.132587 H        1 UNL1     0.1022
     75 H         2.051994   -9.891663   5.855391 H        1 UNL1     0.0279
     76 H         1.785822   -11.202251   4.776127 H        1 UNL1     0.0279
     77 H         3.324876   -11.03202   5.712948 H        1 UNL1     0.0279
     78 H         1.606342   -11.009622   2.567088 H        1 UNL1     0.1553
     79 H         0.679439   -9.262899   2.69371 H        1 UNL1     0.1484
     80 H         -0.989006   -6.755682   0.376458 H        1 UNL1     0.0317
     81 H         -0.299349   -8.267378   -0.197192 H        1 UNL1     0.0317
     82 H         -1.159948   -9.491498   1.816413 H        1 UNL1     0.0428
     83 H         -2.429917   -8.69064   0.917797 H        1 UNL1     0.0428
     84 H         -1.031897   -6.710215   4.414452 H        1 UNL1     0.0428
     85 H         -0.305409   -8.237089   4.053903 H        1 UNL1     0.0428
     86 H         0.970215   -6.19522   3.399375 H        1 UNL1     0.0317
     87 H         -0.256723   -5.64273   2.354516 H        1 UNL1     0.0317
     88 H         -2.910241   -9.331666   3.559195 H        1 UNL1     0.0429
     89 H         -3.133246   -7.816186   4.43659 H        1 UNL1     0.0429
     90 H         -4.774197   -7.056478   2.914552 H        1 UNL1     0.0308
     91 H         -3.409716   -7.112461   0.849821 H        1 UNL1     0.0233
     92 H         -3.541808   -8.888343   0.784332 H        1 UNL1     0.0233
     93 H         -4.951597   -7.888074   0.507639 H        1 UNL1     0.0233
     94 H         -6.371734   -8.703081   2.732029 H        1 UNL1     0.0233
     95 H         -5.194057   -9.968981   2.35137 H        1 UNL1     0.0233
     96 H         -5.324576   -9.347669   4.012974 H        1 UNL1     0.0233
     97 H         6.173125   -8.43493   -4.559263 H        1 UNL1     0.0280
     98 H         7.548974   -8.456131   -3.489787 H        1 UNL1     0.0280
     99 H         6.706458   -9.984595   -3.881826 H        1 UNL1     0.0280
     100 H         5.72787   -11.542963   -1.149759 H        1 UNL1     0.2922
     101 H         4.128032   -1.899526   2.996621 H        1 UNL1     0.0236
     102 H         4.988253   -3.376471   3.583746 H        1 UNL1     0.0236
     103 H         3.682756   -2.671797   4.486303 H        1 UNL1     0.0236
     104 H         1.630211   -0.969939   3.309288 H        1 UNL1     0.2098
     105 H         0.155956   -1.675698   -0.422495 H        1 UNL1     0.0234
     106 H         -0.605847   -1.131962   1.099052 H        1 UNL1     0.0234
     107 H         -0.0   0.0   0.0 H        1 UNL1     0.0234
     108 H         3.846215   -1.363263   0.364305 H        1 UNL1     0.2098
     109 H         0.642112   -3.244923   -2.9243 H        1 UNL1     0.0234
     110 H         1.231248   -2.688384   -1.325555 H        1 UNL1     0.0234
     111 H         -0.316266   -2.186394   -1.910405 H        1 UNL1     0.0234
     112 H         -0.455943   1.635893   0.824925 H        1 UNL1     0.0342
     113 H         -1.676138   0.373465   0.430414 H        1 UNL1     0.0342
     114 H         0.031719   0.109217   0.06797 H        1 UNL1     0.0342
     115 H         3.496657   2.707076   -1.5028 H        1 UNL1     0.0234
     116 H         4.069524   1.269088   -2.354151 H        1 UNL1     0.0234
     117 H         2.788539   2.316286   -2.999211 H        1 UNL1     0.0234
     118 H         3.478441   -4.645379   -4.350531 H        1 UNL1     0.0309
     119 H         3.577698   -6.431494   -4.261073 H        1 UNL1     0.0309
     120 H         2.459026   -5.52204   -3.269296 H        1 UNL1     0.0309
     121 H         5.159038   0.733643   -4.12826 H        1 UNL1     0.0524
     122 H         4.215943   -0.282884   -5.225576 H        1 UNL1     0.0524
     123 H         3.464276   1.15667   -4.493167 H        1 UNL1     0.0524
@<TRIPOS>BOND
     1     1     2    1
     2     1    42    1
     3     2     3    2
     4     3     4    1
     5     4     5    2
     6     5     7    1
     7     6    75    1
     8     6    76    1
     9     6    77    1
    10     7     9   am
    11     9    10    1
    12    10    11    2
    13    10    43    1
    14    11    14    1
    15    11    15    1
    16    12    13   ar
    17    12    27   ar
    18    12    43    1
    19    13    14    1
    20    13    30   ar
    21    14    17    2
    22    15    16    1
    23    16    17    1
    24    16    18    1
    25    16    22    1
    26    18    19    1
    27    19    20    1
    28    20    21    1
    29    21    22    1
    30    23    24    1
    31    23    88    1
    32    23    89    1
    33    24    25    1
    34    24    26    1
    35    24    90    1
    36    25    91    1
    37    25    92    1
    38    25    93    1
    39    26    94    1
    40    26    95    1
    41    26    96    1
    42    27    28   ar
    43    28    29   ar
    44    29    30   ar
    45    29    31    1
    46    30    33    1
    47    31    32    1
    48    32    33    1
    49    32    35    1
    50    34    97    1
    51    34    98    1
    52    34    99    1
    53    35    61    1
    54    36    37    1
    55    36    60    1
    56    37    38    1
    57    38    39    1
    58    39    40    1
    59    40    41    1
    60    41    42    1
    61    45   100    1
    62    47   101    1
    63    47   102    1
    64    47   103    1
    65    48   104    1
    66    49   105    1
    67    49   106    1
    68    49   107    1
    69    50   108    1
    70    51    59    1
    71    52   109    1
    72    52   110    1
    73    52   111    1
    74    53    54    1
    75    54    55    2
    76    54    56    1
    77    56   112    1
    78    56   113    1
    79    56   114    1
    80    57   115    1
    81    57   116    1
    82    57   117    1
    83    58   118    1
    84    58   119    1
    85    58   120    1
    86    59   121    1
    87    59   122    1
    88    59   123    1
    89    60    61    2
    90     1    47    1
    91     1    62    1
    92     2    63    1
    93     3    64    1
    94     4    65    1
    95     5     6    1
    96     7     8    2
    97     9    78    1
    98    15    79    1
    99    18    80    1
   100    18    81    1
   101    19    82    1
   102    19    83    1
   103    20    23    1
   104    21    84    1
   105    21    85    1
   106    22    86    1
   107    22    87    1
   108    27    45    1
   109    28    34    1
   110    32    58    1
   111    33    46    2
   112    36    51    1
   113    36    66    1
   114    37    52    1
   115    37    67    1
   116    38    53    1
   117    38    68    1
   118    42    48    1
   119    42    72    1
   120    43    44    2
   121    60    73    1
   122    61    74    1
   123    39    69    1
   124    39    57    1
   125    40    70    1
   126    40    50    1
   127    41    71    1
   128    41    49    1
