@<TRIPOS>MOLECULE
*****
 123 128 0 0 0
SMALL
GASTEIGER

@<TRIPOS>ATOM
     1 C         -4.046995   2.849919   1.222433 C.3        1 UNL1     0.0009
     2 C         -4.72268   3.965476   2.540013 C.2        1 UNL1     -0.0787
     3 C         -5.404941   4.146741   3.804018 C.2        1 UNL1     -0.0649
     4 C         -5.659609   5.590137   4.651433 C.2        1 UNL1     -0.0542
     5 C         -5.958933   6.157586   5.914558 C.2        1 UNL1     0.0115
     6 C         -6.418688   5.830483   7.361953 C.3        1 UNL1     -0.0348
     7 C         -5.645646   7.71252   6.161576 C.2        1 UNL1     0.2441
     8 O         -6.511211   8.576803   6.14323 O.2        1 UNL1     -0.2702
     9 N         -4.358232   7.982413   6.657435 N.am        1 UNL1     -0.2772
     10 C         -3.466609   8.135304   5.620634 C.2        1 UNL1     0.1049
     11 C         -2.966942   7.022781   5.113834 C.2        1 UNL1     0.0801
     12 C         -3.143151   9.319129   3.440894 C.ar        1 UNL1     0.0753
     13 C         -2.808094   8.042616   2.886944 C.ar        1 UNL1     0.0305
     14 C         -2.581771   6.875462   3.736403 C.2        1 UNL1     0.0924
     15 N         -3.021342   5.762075   5.576639 N.pl3        1 UNL1     -0.3170
     16 C         -2.17278   4.951399   4.744172 C.3        1 UNL1     0.1275
     17 N         -2.172039   5.653447   3.408188 N.2        1 UNL1     -0.2557
     18 C         -0.753027   5.075794   5.288716 C.3        1 UNL1     0.0016
     19 C         -0.758329   4.677702   6.756055 C.3        1 UNL1     0.0026
     20 N         -1.244328   3.309361   6.867745 N.3        1 UNL1     -0.3018
     21 C         -2.579899   3.076809   6.314086 C.3        1 UNL1     0.0026
     22 C         -2.550419   3.478974   4.838522 C.3        1 UNL1     0.0016
     23 C         -1.009109   2.732414   8.176351 C.3        1 UNL1     0.0012
     24 C         -1.821596   3.477184   9.247303 C.3        1 UNL1     -0.0339
     25 C         -3.330024   3.408852   8.957422 C.3        1 UNL1     -0.0615
     26 C         -1.491828   2.930104   10.625249 C.3        1 UNL1     -0.0615
     27 C         -3.238579   10.452351   2.636644 C.ar        1 UNL1     0.1347
     28 C         -2.983205   10.440768   1.276975 C.ar        1 UNL1     0.0342
     29 C         -2.70305   9.164002   0.745425 C.ar        1 UNL1     0.1435
     30 C         -2.639612   8.013785   1.532951 C.ar        1 UNL1     0.0774
     31 O         -2.324996   9.003891   -0.541605 O.3        1 UNL1     -0.4436
     32 C         -1.690381   7.716657   -0.575717 C.3        1 UNL1     0.3143
     33 C         -2.256282   6.964398   0.611749 C.2        1 UNL1     0.2504
     34 C         -2.819925   11.651008   0.400187 C.3        1 UNL1     -0.0327
     35 O         -2.152685   7.044901   -1.753967 O.2        1 UNL1     -0.4528
     36 C         0.680036   4.757372   -2.826809 C.3        1 UNL1     0.0854
     37 C         1.398263   3.612355   -2.014031 C.3        1 UNL1     0.0236
     38 C         1.405681   2.177586   -2.730359 C.3        1 UNL1     0.1131
     39 C         0.053818   1.567828   -3.280753 C.3        1 UNL1     0.0200
     40 C         -1.34258   1.651805   -2.372206 C.3        1 UNL1     0.0661
     41 C         -1.496327   1.205271   -0.742918 C.3        1 UNL1     0.0091
     42 C         -2.571753   1.882299   0.580145 C.3        1 UNL1     0.0661
     43 C         -3.297956   9.413681   4.913767 C.2        1 UNL1     0.2131
     44 O         -3.191233   10.454743   5.536293 O.2        1 UNL1     -0.2851
     45 O         -3.614261   11.647054   3.24737 O.3        1 UNL1     -0.5056
     46 O         -2.382839   5.768941   0.755693 O.2        1 UNL1     -0.2836
     47 C         -5.201655   2.273271   0.359751 C.3        1 UNL1     -0.0566
     48 O         -3.03368   0.55136   1.043115 O.3        1 UNL1     -0.3909
     49 C         -0.114892   1.043192   -0.148894 C.3        1 UNL1     -0.0577
     50 O         -2.019497   2.870514   -2.605132 O.3        1 UNL1     -0.3910
     51 O         -0.011604   4.349558   -3.985581 O.3        1 UNL1     -0.3753
     52 C         1.185108   3.771009   -0.473141 C.3        1 UNL1     -0.0564
     53 O         2.377446   1.20829   -2.123347 O.3        1 UNL1     -0.4608
     54 C         2.325894   0.728803   -0.840629 C.2        1 UNL1     0.3042
     55 O         2.876331   1.197915   0.154756 O.2        1 UNL1     -0.2512
     56 C         1.438793   -0.473262   -0.683129 C.3        1 UNL1     0.0332
     57 C         -0.044351   1.936381   -4.834042 C.3        1 UNL1     -0.0567
     58 C         -0.183003   7.965639   -0.336242 C.3        1 UNL1     0.0210
     59 C         -1.16924   5.123649   -4.296268 C.3        1 UNL1     0.0372
     60 C         -0.263544   5.593318   -2.035599 C.2        1 UNL1     -0.0208
     61 C         -1.493449   6.019366   -2.326393 C.2        1 UNL1     0.0882
     62 H         -3.672193   3.734122   0.692885 H        1 UNL1     0.0365
     63 H         -4.528519   4.944552   2.09709 H        1 UNL1     0.0576
     64 H         -5.688401   3.296626   4.428567 H        1 UNL1     0.0615
     65 H         -5.424787   6.367248   3.919012 H        1 UNL1     0.0622
     66 H         1.493431   5.429745   -3.133972 H        1 UNL1     0.0645
     67 H         2.467375   3.884046   -2.055801 H        1 UNL1     0.0362
     68 H         2.000961   2.421033   -3.62361 H        1 UNL1     0.0741
     69 H         0.183215   0.502642   -3.418755 H        1 UNL1     0.0359
     70 H         -1.955079   0.891234   -2.893202 H        1 UNL1     0.0600
     71 H         -1.807305   0.148672   -0.860599 H        1 UNL1     0.0348
     72 H         -3.023145   2.201376   -0.370513 H        1 UNL1     0.0602
     73 H         0.232568   5.955461   -1.169589 H        1 UNL1     0.0628
     74 H         -2.091499   5.653239   -3.161572 H        1 UNL1     0.1022
     75 H         -5.909369   4.909951   7.736451 H        1 UNL1     0.0279
     76 H         -6.170893   6.562967   8.126894 H        1 UNL1     0.0279
     77 H         -7.475473   5.530304   7.41487 H        1 UNL1     0.0279
     78 H         -4.03853   7.199123   7.223407 H        1 UNL1     0.1553
     79 H         -3.23383   5.526961   6.528744 H        1 UNL1     0.1484
     80 H         -0.087171   4.431964   4.701447 H        1 UNL1     0.0317
     81 H         -0.379053   6.099092   5.176223 H        1 UNL1     0.0317
     82 H         -1.36716   5.364696   7.362089 H        1 UNL1     0.0428
     83 H         0.263208   4.775377   7.124799 H        1 UNL1     0.0428
     84 H         -2.888131   2.026947   6.338461 H        1 UNL1     0.0428
     85 H         -3.35758   3.596643   6.890541 H        1 UNL1     0.0428
     86 H         -3.498034   3.172523   4.435903 H        1 UNL1     0.0317
     87 H         -1.830083   2.85578   4.29461 H        1 UNL1     0.0317
     88 H         -1.339153   1.685613   8.152422 H        1 UNL1     0.0429
     89 H         0.060352   2.726877   8.423327 H        1 UNL1     0.0429
     90 H         -1.516224   4.530152   9.262137 H        1 UNL1     0.0308
     91 H         -3.522994   3.116421   7.920914 H        1 UNL1     0.0233
     92 H         -3.820402   2.698908   9.627585 H        1 UNL1     0.0233
     93 H         -3.82952   4.372553   9.114329 H        1 UNL1     0.0233
     94 H         -2.011682   1.979912   10.78872 H        1 UNL1     0.0233
     95 H         -0.417111   2.744681   10.706263 H        1 UNL1     0.0233
     96 H         -1.790142   3.627249   11.413263 H        1 UNL1     0.0233
     97 H         -2.390216   12.489891   0.939498 H        1 UNL1     0.0280
     98 H         -2.146767   11.461188   -0.446031 H        1 UNL1     0.0280
     99 H         -3.803511   11.958878   0.009201 H        1 UNL1     0.0280
     100 H         -4.124407   11.542549   4.03124 H        1 UNL1     0.2922
     101 H         -5.248145   2.801176   -0.592515 H        1 UNL1     0.0236
     102 H         -6.161995   2.272516   0.87427 H        1 UNL1     0.0236
     103 H         -5.02813   1.218893   0.087043 H        1 UNL1     0.0236
     104 H         -3.155098   0.601702   2.011461 H        1 UNL1     0.2098
     105 H         0.693488   1.378234   -0.793937 H        1 UNL1     0.0234
     106 H         0.002462   1.459978   0.851328 H        1 UNL1     0.0234
     107 H         0.0   0.0   0.0 H        1 UNL1     0.0234
     108 H         -2.124521   2.963912   -3.571576 H        1 UNL1     0.2098
     109 H         0.16133   4.083982   -0.224872 H        1 UNL1     0.0234
     110 H         1.439269   2.867674   0.091776 H        1 UNL1     0.0234
     111 H         1.842472   4.542754   -0.05097 H        1 UNL1     0.0234
     112 H         1.781523   -1.277506   -1.341212 H        1 UNL1     0.0342
     113 H         1.385755   -0.810437   0.350962 H        1 UNL1     0.0342
     114 H         0.423011   -0.193196   -0.994441 H        1 UNL1     0.0342
     115 H         -1.080569   1.900587   -5.197579 H        1 UNL1     0.0234
     116 H         0.357154   2.92069   -5.082996 H        1 UNL1     0.0234
     117 H         0.438565   1.194852   -5.493488 H        1 UNL1     0.0234
     118 H         0.063634   8.013498   0.73888 H        1 UNL1     0.0309
     119 H         0.457444   7.219872   -0.817762 H        1 UNL1     0.0309
     120 H         0.147602   8.939043   -0.71478 H        1 UNL1     0.0309
     121 H         -1.216742   5.225295   -5.380135 H        1 UNL1     0.0524
     122 H         -2.10082   4.633532   -3.967663 H        1 UNL1     0.0524
     123 H         -1.102741   6.102808   -3.830521 H        1 UNL1     0.0524
@<TRIPOS>BOND
     1     1     2    1
     2     1    42    1
     3     2     3    2
     4     3     4    1
     5     4     5    2
     6     5     7    1
     7     6    75    1
     8     6    76    1
     9     6    77    1
    10     7     9   am
    11     9    10    1
    12    10    11    2
    13    10    43    1
    14    11    14    1
    15    11    15    1
    16    12    13   ar
    17    12    27   ar
    18    12    43    1
    19    13    14    1
    20    13    30   ar
    21    14    17    2
    22    15    16    1
    23    16    17    1
    24    16    18    1
    25    16    22    1
    26    18    19    1
    27    19    20    1
    28    20    21    1
    29    21    22    1
    30    23    24    1
    31    23    88    1
    32    23    89    1
    33    24    25    1
    34    24    26    1
    35    24    90    1
    36    25    91    1
    37    25    92    1
    38    25    93    1
    39    26    94    1
    40    26    95    1
    41    26    96    1
    42    27    28   ar
    43    28    29   ar
    44    29    30   ar
    45    29    31    1
    46    30    33    1
    47    31    32    1
    48    32    33    1
    49    32    35    1
    50    34    97    1
    51    34    98    1
    52    34    99    1
    53    35    61    1
    54    36    37    1
    55    36    60    1
    56    37    38    1
    57    38    39    1
    58    39    40    1
    59    40    41    1
    60    41    42    1
    61    45   100    1
    62    47   101    1
    63    47   102    1
    64    47   103    1
    65    48   104    1
    66    49   105    1
    67    49   106    1
    68    49   107    1
    69    50   108    1
    70    51    59    1
    71    52   109    1
    72    52   110    1
    73    52   111    1
    74    53    54    1
    75    54    55    2
    76    54    56    1
    77    56   112    1
    78    56   113    1
    79    56   114    1
    80    57   115    1
    81    57   116    1
    82    57   117    1
    83    58   118    1
    84    58   119    1
    85    58   120    1
    86    59   121    1
    87    59   122    1
    88    59   123    1
    89    60    61    2
    90     1    47    1
    91     1    62    1
    92     2    63    1
    93     3    64    1
    94     4    65    1
    95     5     6    1
    96     7     8    2
    97     9    78    1
    98    15    79    1
    99    18    80    1
   100    18    81    1
   101    19    82    1
   102    19    83    1
   103    20    23    1
   104    21    84    1
   105    21    85    1
   106    22    86    1
   107    22    87    1
   108    27    45    1
   109    28    34    1
   110    32    58    1
   111    33    46    2
   112    36    51    1
   113    36    66    1
   114    37    52    1
   115    37    67    1
   116    38    53    1
   117    38    68    1
   118    42    48    1
   119    42    72    1
   120    43    44    2
   121    60    73    1
   122    61    74    1
   123    39    69    1
   124    39    57    1
   125    40    70    1
   126    40    50    1
   127    41    71    1
   128    41    49    1
