@<TRIPOS>MOLECULE
*****
 123 128 0 0 0
SMALL
GASTEIGER

@<TRIPOS>ATOM
     1 C         1.869888   2.559493   -2.673359 C.3        1 UNL1     0.0009
     2 C         2.161432   4.379078   -2.470503 C.2        1 UNL1     -0.0787
     3 C         1.789477   5.749757   -2.751452 C.2        1 UNL1     -0.0649
     4 C         2.459004   7.163359   -2.103516 C.2        1 UNL1     -0.0542
     5 C         2.249332   8.544103   -1.865483 C.2        1 UNL1     0.0115
     6 C         1.318766   9.746852   -2.182918 C.3        1 UNL1     -0.0348
     7 C         3.162539   9.292356   -0.777751 C.2        1 UNL1     0.2441
     8 O         4.102903   10.013538   -1.081294 O.2        1 UNL1     -0.2702
     9 N         2.652375   9.274529   0.532045 N.am        1 UNL1     -0.2772
     10 C         3.07294   8.145019   1.195863 C.2        1 UNL1     0.1049
     11 C         2.372155   7.046997   0.977987 C.2        1 UNL1     0.0801
     12 C         5.111363   6.788609   1.708033 C.ar        1 UNL1     0.0753
     13 C         4.369846   5.649186   1.260289 C.ar        1 UNL1     0.0305
     14 C         2.933016   5.723339   1.005196 C.2        1 UNL1     0.0924
     15 N         1.181984   6.887411   0.374204 N.pl3        1 UNL1     -0.3170
     16 C         0.779892   5.517233   0.550804 C.3        1 UNL1     0.1275
     17 N         2.076806   4.757187   0.685224 N.2        1 UNL1     -0.2557
     18 C         0.089426   5.419939   1.90782 C.3        1 UNL1     0.0016
     19 C         -1.055394   6.419781   1.943782 C.3        1 UNL1     0.0026
     20 N         -1.980266   6.111014   0.861977 N.3        1 UNL1     -0.3018
     21 C         -1.392915   6.118917   -0.479413 C.3        1 UNL1     0.0026
     22 C         -0.248263   5.104299   -0.494151 C.3        1 UNL1     0.0016
     23 C         -3.245801   6.806444   0.98624 C.3        1 UNL1     0.0012
     24 C         -4.057587   6.241521   2.162515 C.3        1 UNL1     -0.0339
     25 C         -3.139903   5.67739   3.259633 C.3        1 UNL1     -0.0615
     26 C         -4.992798   7.306264   2.708851 C.3        1 UNL1     -0.0615
     27 C         6.453574   6.68163   2.064606 C.ar        1 UNL1     0.1347
     28 C         7.14814   5.485183   2.052739 C.ar        1 UNL1     0.0342
     29 C         6.411555   4.386222   1.561931 C.ar        1 UNL1     0.1435
     30 C         5.076899   4.485626   1.166921 C.ar        1 UNL1     0.0774
     31 O         6.912872   3.132103   1.591487 O.3        1 UNL1     -0.4436
     32 C         5.763607   2.279372   1.477856 C.3        1 UNL1     0.3143
     33 C         4.701508   3.132349   0.814088 C.2        1 UNL1     0.2504
     34 C         8.504528   5.247082   2.655747 C.3        1 UNL1     -0.0327
     35 O         6.097348   1.235456   0.554758 O.2        1 UNL1     -0.4528
     36 C         4.079287   -1.792758   1.634311 C.3        1 UNL1     0.0854
     37 C         2.518095   -1.941458   1.801919 C.3        1 UNL1     0.0236
     38 C         1.860574   -3.144437   0.969903 C.3        1 UNL1     0.1131
     39 C         2.170124   -3.292256   -0.574311 C.3        1 UNL1     0.0200
     40 C         2.166811   -1.952959   -1.56865 C.3        1 UNL1     0.0661
     41 C         0.941007   -0.783644   -1.656504 C.3        1 UNL1     0.0091
     42 C         1.034108   1.013588   -2.012443 C.3        1 UNL1     0.0661
     43 C         4.379968   8.070217   1.865517 C.2        1 UNL1     0.2131
     44 O         4.76061   8.978841   2.581234 O.2        1 UNL1     -0.2851
     45 O         7.114597   7.847382   2.446062 O.3        1 UNL1     -0.5056
     46 O         3.76842   2.776479   0.129576 O.2        1 UNL1     -0.2836
     47 C         2.319979   2.095283   -4.084709 C.3        1 UNL1     -0.0566
     48 O         -0.074228   0.991782   -2.997448 O.3        1 UNL1     -0.3909
     49 C         0.020895   -0.950946   -0.46785 C.3        1 UNL1     -0.0577
     50 O         3.433556   -1.325998   -1.569128 O.3        1 UNL1     -0.3910
     51 O         4.674147   -2.610864   0.652336 O.3        1 UNL1     -0.3753
     52 C         1.814342   -0.55337   1.953225 C.3        1 UNL1     -0.0564
     53 O         0.466017   -3.485329   1.407316 O.3        1 UNL1     -0.4608
     54 C         -0.36799   -4.375417   0.782733 C.2        1 UNL1     0.3042
     55 O         -1.089768   -5.220002   1.31146 O.2        1 UNL1     -0.2512
     56 C         -0.405153   -4.21846   -0.710819 C.3        1 UNL1     0.0332
     57 C         3.376789   -4.330913   -0.727041 C.3        1 UNL1     -0.0567
     58 C         5.313828   1.956757   2.92186 C.3        1 UNL1     0.0210
     59 C         5.457064   -3.688467   1.163878 C.3        1 UNL1     0.0372
     60 C         4.555428   -0.405212   1.382983 C.2        1 UNL1     -0.0208
     61 C         5.446845   0.057158   0.505297 C.2        1 UNL1     0.0882
     62 H         2.712363   2.36864   -1.997695 H        1 UNL1     0.0365
     63 H         3.084022   4.373558   -1.886322 H        1 UNL1     0.0576
     64 H         0.887304   5.993656   -3.316876 H        1 UNL1     0.0615
     65 H         3.385234   6.821462   -1.633743 H        1 UNL1     0.0622
     66 H         4.490483   -2.079921   2.61232 H        1 UNL1     0.0645
     67 H         2.392548   -2.297662   2.839183 H        1 UNL1     0.0362
     68 H         2.3632   -3.997236   1.451176 H        1 UNL1     0.0741
     69 H         1.413098   -3.922044   -1.022291 H        1 UNL1     0.0359
     70 H         2.103216   -2.448783   -2.556159 H        1 UNL1     0.0600
     71 H         0.323745   -1.211492   -2.470685 H        1 UNL1     0.0348
     72 H         1.971312   0.580501   -2.391125 H        1 UNL1     0.0602
     73 H         4.160483   0.239891   2.12804 H        1 UNL1     0.0628
     74 H         5.85456   -0.522946   -0.323248 H        1 UNL1     0.1022
     75 H         1.107624   9.800766   -3.278156 H        1 UNL1     0.0279
     76 H         0.320114   9.714227   -1.753152 H        1 UNL1     0.0279
     77 H         1.804315   10.718053   -2.007668 H        1 UNL1     0.0279
     78 H         1.635178   9.251675   0.502637 H        1 UNL1     0.1553
     79 H         0.525339   7.632697   0.231727 H        1 UNL1     0.1484
     80 H         -0.27003   4.394082   2.053336 H        1 UNL1     0.0317
     81 H         0.794386   5.623365   2.721024 H        1 UNL1     0.0317
     82 H         -0.693411   7.455951   1.87144 H        1 UNL1     0.0428
     83 H         -1.532748   6.334932   2.920504 H        1 UNL1     0.0428
     84 H         -2.088321   5.806331   -1.264596 H        1 UNL1     0.0428
     85 H         -1.082806   7.128083   -0.783935 H        1 UNL1     0.0428
     86 H         0.068663   5.040194   -1.518571 H        1 UNL1     0.0317
     87 H         -0.635393   4.099588   -0.284911 H        1 UNL1     0.0317
     88 H         -3.035466   7.865749   1.183539 H        1 UNL1     0.0429
     89 H         -3.819194   6.761098   0.051394 H        1 UNL1     0.0429
     90 H         -4.703497   5.433898   1.798153 H        1 UNL1     0.0308
     91 H         -2.998989   4.598516   3.144408 H        1 UNL1     0.0233
     92 H         -2.165237   6.170566   3.23933 H        1 UNL1     0.0233
     93 H         -3.543845   5.839738   4.266265 H        1 UNL1     0.0233
     94 H         -4.464838   7.938072   3.431286 H        1 UNL1     0.0233
     95 H         -5.345664   7.946603   1.895578 H        1 UNL1     0.0233
     96 H         -5.857788   6.85992   3.207385 H        1 UNL1     0.0233
     97 H         8.4842   4.464439   3.408268 H        1 UNL1     0.0280
     98 H         9.239615   4.924783   1.906729 H        1 UNL1     0.0280
     99 H         8.865035   6.174082   3.130932 H        1 UNL1     0.0280
     100 H         7.000855   8.572546   1.857146 H        1 UNL1     0.2922
     101 H         3.266738   1.560569   -4.011318 H        1 UNL1     0.0236
     102 H         2.364202   2.907681   -4.809303 H        1 UNL1     0.0236
     103 H         1.619515   1.365201   -4.523484 H        1 UNL1     0.0236
     104 H         -0.911957   0.934005   -2.497606 H        1 UNL1     0.2098
     105 H         -1.001103   -1.21773   -0.725063 H        1 UNL1     0.0234
     106 H         0.399296   -1.612425   0.311371 H        1 UNL1     0.0234
     107 H         0.0   0.0   0.0 H        1 UNL1     0.0234
     108 H         3.290271   -0.382664   -1.777357 H        1 UNL1     0.2098
     109 H         2.52523   0.249395   2.193885 H        1 UNL1     0.0234
     110 H         1.22653   -0.270647   1.073288 H        1 UNL1     0.0234
     111 H         1.082569   -0.55772   2.772026 H        1 UNL1     0.0234
     112 H         -1.095296   -4.948403   -1.144677 H        1 UNL1     0.0342
     113 H         -0.669474   -3.205219   -1.009683 H        1 UNL1     0.0342
     114 H         0.599107   -4.429939   -1.103123 H        1 UNL1     0.0342
     115 H         3.833399   -4.571954   0.242802 H        1 UNL1     0.0234
     116 H         3.094089   -5.273395   -1.200177 H        1 UNL1     0.0234
     117 H         4.243095   -3.921395   -1.274536 H        1 UNL1     0.0234
     118 H         5.497826   0.900968   3.187304 H        1 UNL1     0.0309
     119 H         5.78252   2.601574   3.672021 H        1 UNL1     0.0309
     120 H         4.232697   2.067176   3.059955 H        1 UNL1     0.0309
     121 H         5.507034   -4.45539   0.391421 H        1 UNL1     0.0524
     122 H         6.49088   -3.381804   1.394575 H        1 UNL1     0.0524
     123 H         4.999839   -4.091433   2.063132 H        1 UNL1     0.0524
@<TRIPOS>BOND
     1     1     2    1
     2     1    42    1
     3     2     3    2
     4     3     4    1
     5     4     5    2
     6     5     7    1
     7     6    75    1
     8     6    76    1
     9     6    77    1
    10     7     9   am
    11     9    10    1
    12    10    11    2
    13    10    43    1
    14    11    14    1
    15    11    15    1
    16    12    13   ar
    17    12    27   ar
    18    12    43    1
    19    13    14    1
    20    13    30   ar
    21    14    17    2
    22    15    16    1
    23    16    17    1
    24    16    18    1
    25    16    22    1
    26    18    19    1
    27    19    20    1
    28    20    21    1
    29    21    22    1
    30    23    24    1
    31    23    88    1
    32    23    89    1
    33    24    25    1
    34    24    26    1
    35    24    90    1
    36    25    91    1
    37    25    92    1
    38    25    93    1
    39    26    94    1
    40    26    95    1
    41    26    96    1
    42    27    28   ar
    43    28    29   ar
    44    29    30   ar
    45    29    31    1
    46    30    33    1
    47    31    32    1
    48    32    33    1
    49    32    35    1
    50    34    97    1
    51    34    98    1
    52    34    99    1
    53    35    61    1
    54    36    37    1
    55    36    60    1
    56    37    38    1
    57    38    39    1
    58    39    40    1
    59    40    41    1
    60    41    42    1
    61    45   100    1
    62    47   101    1
    63    47   102    1
    64    47   103    1
    65    48   104    1
    66    49   105    1
    67    49   106    1
    68    49   107    1
    69    50   108    1
    70    51    59    1
    71    52   109    1
    72    52   110    1
    73    52   111    1
    74    53    54    1
    75    54    55    2
    76    54    56    1
    77    56   112    1
    78    56   113    1
    79    56   114    1
    80    57   115    1
    81    57   116    1
    82    57   117    1
    83    58   118    1
    84    58   119    1
    85    58   120    1
    86    59   121    1
    87    59   122    1
    88    59   123    1
    89    60    61    2
    90     1    47    1
    91     1    62    1
    92     2    63    1
    93     3    64    1
    94     4    65    1
    95     5     6    1
    96     7     8    2
    97     9    78    1
    98    15    79    1
    99    18    80    1
   100    18    81    1
   101    19    82    1
   102    19    83    1
   103    20    23    1
   104    21    84    1
   105    21    85    1
   106    22    86    1
   107    22    87    1
   108    27    45    1
   109    28    34    1
   110    32    58    1
   111    33    46    2
   112    36    51    1
   113    36    66    1
   114    37    52    1
   115    37    67    1
   116    38    53    1
   117    38    68    1
   118    42    48    1
   119    42    72    1
   120    43    44    2
   121    60    73    1
   122    61    74    1
   123    39    69    1
   124    39    57    1
   125    40    70    1
   126    40    50    1
   127    41    71    1
   128    41    49    1
