@<TRIPOS>MOLECULE
*****
 123 128 0 0 0
SMALL
GASTEIGER

@<TRIPOS>ATOM
     1 C         3.964025   3.4937   -0.614407 C.3        1 UNL1     0.0009
     2 C         4.988412   4.79843   0.213452 C.2        1 UNL1     -0.0787
     3 C         5.199503   6.181695   0.585024 C.2        1 UNL1     -0.0649
     4 C         6.423633   6.820902   1.56445 C.2        1 UNL1     -0.0542
     5 C         6.81316   7.922458   2.36565 C.2        1 UNL1     0.0115
     6 C         6.444956   9.377624   2.765952 C.3        1 UNL1     -0.0348
     7 C         8.007832   7.731674   3.420804 C.2        1 UNL1     0.2441
     8 O         9.144714   8.135792   3.219032 O.2        1 UNL1     -0.2702
     9 N         7.603438   7.30396   4.697393 N.am        1 UNL1     -0.2772
     10 C         7.55545   5.929846   4.75059 C.2        1 UNL1     0.1049
     11 C         6.454782   5.367445   4.285339 C.2        1 UNL1     0.0801
     12 C         8.87855   3.876507   4.211574 C.ar        1 UNL1     0.0753
     13 C         7.711991   3.397687   3.534462 C.ar        1 UNL1     0.0305
     14 C         6.421924   4.071663   3.663049 C.2        1 UNL1     0.0924
     15 N         5.275112   5.920637   3.955359 N.pl3        1 UNL1     -0.3170
     16 C         4.354504   4.853104   3.667076 C.3        1 UNL1     0.1275
     17 N         5.228844   3.717625   3.193853 N.2        1 UNL1     -0.2557
     18 C         3.755763   4.40124   4.99562 C.3        1 UNL1     0.0016
     19 C         3.12723   5.604564   5.680125 C.3        1 UNL1     0.0026
     20 N         2.103078   6.158331   4.805206 N.3        1 UNL1     -0.3018
     21 C         2.572006   6.565352   3.479005 C.3        1 UNL1     0.0026
     22 C         3.195396   5.34037   2.807665 C.3        1 UNL1     0.0016
     23 C         1.243974   7.113264   5.476539 C.3        1 UNL1     0.0012
     24 C         1.603267   8.547827   5.058576 C.3        1 UNL1     -0.0339
     25 C         1.400708   9.538471   6.216873 C.3        1 UNL1     -0.0615
     26 C         3.024617   8.594367   4.525306 C.3        1 UNL1     -0.0615
     27 C         10.074214   3.162617   4.182101 C.ar        1 UNL1     0.1347
     28 C         10.213363   1.942754   3.544433 C.ar        1 UNL1     0.0342
     29 C         9.065733   1.514912   2.843678 C.ar        1 UNL1     0.1435
     30 C         7.871855   2.23726   2.834199 C.ar        1 UNL1     0.0774
     31 O         9.007424   0.295931   2.264289 O.3        1 UNL1     -0.4436
     32 C         7.60492   0.043872   2.09016 C.3        1 UNL1     0.3143
     33 C         6.955342   1.41282   2.074549 C.2        1 UNL1     0.2504
     34 C         11.380618   1.005075   3.679992 C.3        1 UNL1     -0.0327
     35 O         7.431745   -0.515016   0.782143 O.2        1 UNL1     -0.4528
     36 C         4.404733   -2.79327   1.01634 C.3        1 UNL1     0.0854
     37 C         2.931486   -2.44992   1.462632 C.3        1 UNL1     0.0236
     38 C         1.795501   -2.837085   0.398967 C.3        1 UNL1     0.1131
     39 C         1.937159   -2.370546   -1.105874 C.3        1 UNL1     0.0200
     40 C         2.434205   -0.819602   -1.466368 C.3        1 UNL1     0.0661
     41 C         1.795359   0.607001   -0.807363 C.3        1 UNL1     0.0091
     42 C         2.601305   2.213795   -0.441211 C.3        1 UNL1     0.0661
     43 C         8.748396   5.113625   5.020806 C.2        1 UNL1     0.2131
     44 O         9.505345   5.406953   5.928399 O.2        1 UNL1     -0.2851
     45 O         11.174957   3.720858   4.828762 O.3        1 UNL1     -0.5056
     46 O         5.924711   1.751749   1.537167 O.2        1 UNL1     -0.2836
     47 C         4.110207   3.591355   -2.156832 C.3        1 UNL1     -0.0566
     48 O         1.533241   3.023675   -1.075601 O.3        1 UNL1     -0.3909
     49 C         0.950202   0.252966   0.395909 C.3        1 UNL1     -0.0577
     50 O         3.844867   -0.74264   -1.509194 O.3        1 UNL1     -0.3910
     51 O         4.559063   -3.230362   -0.315036 O.3        1 UNL1     -0.3753
     52 C         2.86998   -1.131989   2.301814 C.3        1 UNL1     -0.0564
     53 O         0.408649   -2.831146   0.972493 O.3        1 UNL1     -0.4608
     54 C         -0.749964   -2.713257   0.250241 C.2        1 UNL1     0.3042
     55 O         -1.454552   -1.712175   0.12684 O.2        1 UNL1     -0.2512
     56 C         -1.122203   -3.961874   -0.497493 C.3        1 UNL1     0.0332
     57 C         2.60001   -3.574658   -1.923748 C.3        1 UNL1     -0.0567
     58 C         7.136952   -0.715998   3.353146 C.3        1 UNL1     0.0210
     59 C         5.909076   -3.451082   -0.720763 C.3        1 UNL1     0.0372
     60 C         5.396038   -1.70346   1.227975 C.2        1 UNL1     -0.0208
     61 C         6.352441   -1.236747   0.424099 C.2        1 UNL1     0.0882
     62 H         4.686794   2.740323   -0.278639 H        1 UNL1     0.0365
     63 H         5.855648   4.210974   0.522107 H        1 UNL1     0.0576
     64 H         4.449891   6.949763   0.381899 H        1 UNL1     0.0615
     65 H         7.149908   6.00694   1.638421 H        1 UNL1     0.0622
     66 H         4.710924   -3.612556   1.681971 H        1 UNL1     0.0645
     67 H         2.723881   -3.166638   2.276128 H        1 UNL1     0.0362
     68 H         1.926679   -3.929755   0.379264 H        1 UNL1     0.0741
     69 H         0.966168   -2.424556   -1.579865 H        1 UNL1     0.0359
     70 H         2.121672   -0.760775   -2.526521 H        1 UNL1     0.0600
     71 H         1.015857   0.835625   -1.5604 H        1 UNL1     0.0348
     72 H         3.256526   1.703117   -1.161772 H        1 UNL1     0.0602
     73 H         5.340293   -1.371315   2.234862 H        1 UNL1     0.0628
     74 H         6.442269   -1.482239   -0.634628 H        1 UNL1     0.1022
     75 H         7.317208   10.05837   2.614969 H        1 UNL1     0.0279
     76 H         5.66682   9.86016   2.178813 H        1 UNL1     0.0279
     77 H         6.266887   9.489589   3.845515 H        1 UNL1     0.0279
     78 H         6.666892   7.651011   4.893644 H        1 UNL1     0.1553
     79 H         4.97692   6.825651   4.269944 H        1 UNL1     0.1484
     80 H         3.014031   3.616234   4.804921 H        1 UNL1     0.0317
     81 H         4.522678   3.958   5.63985 H        1 UNL1     0.0317
     82 H         3.879257   6.364224   5.939517 H        1 UNL1     0.0428
     83 H         2.708033   5.260337   6.62608 H        1 UNL1     0.0428
     84 H         1.770308   6.902843   2.814783 H        1 UNL1     0.0428
     85 H         3.253809   7.425343   3.532655 H        1 UNL1     0.0428
     86 H         3.404872   5.639131   1.797294 H        1 UNL1     0.0317
     87 H         2.44045   4.553656   2.688353 H        1 UNL1     0.0317
     88 H         0.207708   6.910781   5.175792 H        1 UNL1     0.0429
     89 H         1.291457   6.994793   6.566715 H        1 UNL1     0.0429
     90 H         0.960084   8.85047   4.223749 H        1 UNL1     0.0308
     91 H         1.816443   9.148712   7.150873 H        1 UNL1     0.0233
     92 H         1.868298   10.499365   5.989604 H        1 UNL1     0.0233
     93 H         0.341175   9.750739   6.404405 H        1 UNL1     0.0233
     94 H         3.419902   9.613741   4.592113 H        1 UNL1     0.0233
     95 H         3.66916   7.943064   5.122241 H        1 UNL1     0.0233
     96 H         3.069562   8.274074   3.480624 H        1 UNL1     0.0233
     97 H         11.836863   1.061987   4.663777 H        1 UNL1     0.0280
     98 H         11.086482   -0.044027   3.545363 H        1 UNL1     0.0280
     99 H         12.146518   1.258201   2.928714 H        1 UNL1     0.0280
     100 H         11.149199   4.658327   4.906932 H        1 UNL1     0.2922
     101 H         4.225382   4.634667   -2.449906 H        1 UNL1     0.0236
     102 H         3.299702   3.102154   -2.696041 H        1 UNL1     0.0236
     103 H         5.027069   3.096332   -2.518092 H        1 UNL1     0.0236
     104 H         1.765683   3.131614   -2.018623 H        1 UNL1     0.2098
     105 H         1.312142   -0.600666   0.963469 H        1 UNL1     0.0234
     106 H         0.73647   1.087427   1.063682 H        1 UNL1     0.0234
     107 H         -0.0   0.0   0.0 H        1 UNL1     0.0234
     108 H         4.086741   0.199608   -1.42297 H        1 UNL1     0.2098
     109 H         3.250299   -0.265198   1.743476 H        1 UNL1     0.0234
     110 H         1.867243   -0.910954   2.683134 H        1 UNL1     0.0234
     111 H         3.489878   -1.198509   3.205832 H        1 UNL1     0.0234
     112 H         -2.041082   -3.794324   -1.067524 H        1 UNL1     0.0342
     113 H         -0.317717   -4.306342   -1.145558 H        1 UNL1     0.0342
     114 H         -1.321083   -4.754907   0.236475 H        1 UNL1     0.0342
     115 H         2.057141   -4.518013   -1.773537 H        1 UNL1     0.0234
     116 H         2.66224   -3.39934   -2.999592 H        1 UNL1     0.0234
     117 H         3.606895   -3.848699   -1.564549 H        1 UNL1     0.0234
     118 H         7.50759   -1.755834   3.372516 H        1 UNL1     0.0309
     119 H         7.421515   -0.216934   4.284898 H        1 UNL1     0.0309
     120 H         6.04867   -0.834995   3.393014 H        1 UNL1     0.0309
     121 H         5.95303   -3.3255   -1.802269 H        1 UNL1     0.0524
     122 H         6.604927   -2.721942   -0.273346 H        1 UNL1     0.0524
     123 H         6.224746   -4.453748   -0.446704 H        1 UNL1     0.0524
@<TRIPOS>BOND
     1     1     2    1
     2     1    42    1
     3     2     3    2
     4     3     4    1
     5     4     5    2
     6     5     7    1
     7     6    75    1
     8     6    76    1
     9     6    77    1
    10     7     9   am
    11     9    10    1
    12    10    11    2
    13    10    43    1
    14    11    14    1
    15    11    15    1
    16    12    13   ar
    17    12    27   ar
    18    12    43    1
    19    13    14    1
    20    13    30   ar
    21    14    17    2
    22    15    16    1
    23    16    17    1
    24    16    18    1
    25    16    22    1
    26    18    19    1
    27    19    20    1
    28    20    21    1
    29    21    22    1
    30    23    24    1
    31    23    88    1
    32    23    89    1
    33    24    25    1
    34    24    26    1
    35    24    90    1
    36    25    91    1
    37    25    92    1
    38    25    93    1
    39    26    94    1
    40    26    95    1
    41    26    96    1
    42    27    28   ar
    43    28    29   ar
    44    29    30   ar
    45    29    31    1
    46    30    33    1
    47    31    32    1
    48    32    33    1
    49    32    35    1
    50    34    97    1
    51    34    98    1
    52    34    99    1
    53    35    61    1
    54    36    37    1
    55    36    60    1
    56    37    38    1
    57    38    39    1
    58    39    40    1
    59    40    41    1
    60    41    42    1
    61    45   100    1
    62    47   101    1
    63    47   102    1
    64    47   103    1
    65    48   104    1
    66    49   105    1
    67    49   106    1
    68    49   107    1
    69    50   108    1
    70    51    59    1
    71    52   109    1
    72    52   110    1
    73    52   111    1
    74    53    54    1
    75    54    55    2
    76    54    56    1
    77    56   112    1
    78    56   113    1
    79    56   114    1
    80    57   115    1
    81    57   116    1
    82    57   117    1
    83    58   118    1
    84    58   119    1
    85    58   120    1
    86    59   121    1
    87    59   122    1
    88    59   123    1
    89    60    61    2
    90     1    47    1
    91     1    62    1
    92     2    63    1
    93     3    64    1
    94     4    65    1
    95     5     6    1
    96     7     8    2
    97     9    78    1
    98    15    79    1
    99    18    80    1
   100    18    81    1
   101    19    82    1
   102    19    83    1
   103    20    23    1
   104    21    84    1
   105    21    85    1
   106    22    86    1
   107    22    87    1
   108    27    45    1
   109    28    34    1
   110    32    58    1
   111    33    46    2
   112    36    51    1
   113    36    66    1
   114    37    52    1
   115    37    67    1
   116    38    53    1
   117    38    68    1
   118    42    48    1
   119    42    72    1
   120    43    44    2
   121    60    73    1
   122    61    74    1
   123    39    69    1
   124    39    57    1
   125    40    70    1
   126    40    50    1
   127    41    71    1
   128    41    49    1
