@<TRIPOS>MOLECULE
*****
 123 128 0 0 0
SMALL
GASTEIGER

@<TRIPOS>ATOM
     1 C         5.167085   1.747348   0.497276 C.3        1 UNL1     0.0009
     2 C         6.606366   2.549304   -0.35265 C.2        1 UNL1     -0.0787
     3 C         7.889802   2.447771   -1.014866 C.2        1 UNL1     -0.0649
     4 C         8.769891   3.679456   -1.77299 C.2        1 UNL1     -0.0542
     5 C         9.792394   3.967883   -2.710206 C.2        1 UNL1     0.0115
     6 C         10.922297   3.338436   -3.570694 C.3        1 UNL1     -0.0348
     7 C         9.890173   5.448764   -3.322105 C.2        1 UNL1     0.2441
     8 O         10.713664   6.271315   -2.945542 O.2        1 UNL1     -0.2702
     9 N         9.142946   5.651761   -4.495389 N.am        1 UNL1     -0.2772
     10 C         7.859719   6.04045   -4.18624 C.2        1 UNL1     0.1049
     11 C         7.012595   5.070693   -3.892687 C.2        1 UNL1     0.0801
     12 C         6.558928   7.653277   -2.784789 C.ar        1 UNL1     0.0753
     13 C         5.79805   6.527555   -2.334876 C.ar        1 UNL1     0.0305
     14 C         5.915711   5.219337   -2.975012 C.2        1 UNL1     0.0924
     15 N         7.134742   3.741042   -4.046427 N.pl3        1 UNL1     -0.3170
     16 C         5.863732   3.143881   -3.733082 C.3        1 UNL1     0.1275
     17 N         5.225561   4.103237   -2.758353 N.2        1 UNL1     -0.2557
     18 C         5.014009   3.198694   -4.999047 C.3        1 UNL1     0.0016
     19 C         5.7712   2.509837   -6.123204 C.3        1 UNL1     0.0026
     20 N         6.039507   1.133039   -5.731455 N.3        1 UNL1     -0.3018
     21 C         6.799732   0.976868   -4.489668 C.3        1 UNL1     0.0026
     22 C         6.0187   1.672139   -3.373208 C.3        1 UNL1     0.0016
     23 C         6.48619   0.309007   -6.836937 C.3        1 UNL1     0.0012
     24 C         5.331864   0.05291   -7.818621 C.3        1 UNL1     -0.0339
     25 C         5.356537   1.050596   -8.988267 C.3        1 UNL1     -0.0615
     26 C         5.374048   -1.384067   -8.308618 C.3        1 UNL1     -0.0615
     27 C         6.353772   8.923143   -2.250495 C.ar        1 UNL1     0.1347
     28 C         5.392549   9.19695   -1.293871 C.ar        1 UNL1     0.0342
     29 C         4.689131   8.064706   -0.830846 C.ar        1 UNL1     0.1435
     30 C         4.908976   6.780627   -1.330875 C.ar        1 UNL1     0.0774
     31 O         3.646135   8.182181   0.019663 O.3        1 UNL1     -0.4436
     32 C         2.924008   6.949291   -0.119572 C.3        1 UNL1     0.3143
     33 C         3.937956   5.953522   -0.645469 C.2        1 UNL1     0.2504
     34 C         4.945522   10.565005   -0.859483 C.3        1 UNL1     -0.0327
     35 O         2.559883   6.517831   1.197435 O.2        1 UNL1     -0.4528
     36 C         -0.683439   4.586221   0.800147 C.3        1 UNL1     0.0854
     37 C         -0.987375   3.322426   -0.093144 C.3        1 UNL1     0.0236
     38 C         -1.590664   2.064774   0.69812 C.3        1 UNL1     0.1131
     39 C         -0.86842   1.538334   2.003299 C.3        1 UNL1     0.0200
     40 C         0.792573   1.391885   2.049067 C.3        1 UNL1     0.0661
     41 C         1.754285   0.617998   0.88553 C.3        1 UNL1     0.0091
     42 C         3.463474   0.977314   0.32431 C.3        1 UNL1     0.0661
     43 C         7.511559   7.440701   -3.902628 C.2        1 UNL1     0.2131
     44 O         7.913771   8.33578   -4.623597 O.2        1 UNL1     -0.2851
     45 O         7.167823   9.955977   -2.710944 O.3        1 UNL1     -0.5056
     46 O         3.952846   4.750485   -0.51007 O.2        1 UNL1     -0.2836
     47 C         5.55967   1.323101   1.938065 C.3        1 UNL1     -0.0566
     48 O         3.910921   -0.433756   0.412562 O.3        1 UNL1     -0.3909
     49 C         0.922964   0.381217   -0.355572 C.3        1 UNL1     -0.0577
     50 O         1.392605   2.610852   2.438688 O.3        1 UNL1     -0.3910
     51 O         -0.811032   4.401932   2.191976 O.3        1 UNL1     -0.3753
     52 C         0.059773   3.156893   -1.242504 C.3        1 UNL1     -0.0564
     53 O         -2.191753   1.022752   -0.199215 O.3        1 UNL1     -0.4608
     54 C         -2.415725   -0.285807   0.140547 C.2        1 UNL1     0.3042
     55 O         -1.843114   -1.280861   -0.301972 O.2        1 UNL1     -0.2512
     56 C         -3.447836   -0.459138   1.218237 C.3        1 UNL1     0.0332
     57 C         -1.592075   2.212595   3.260228 C.3        1 UNL1     -0.0567
     58 C         1.851609   7.190933   -1.207275 C.3        1 UNL1     0.0210
     59 C         -1.156176   5.577592   2.923116 C.3        1 UNL1     0.0372
     60 C         0.646522   5.213568   0.570365 C.2        1 UNL1     -0.0208
     61 C         1.557627   5.65153   1.44032 C.2        1 UNL1     0.0882
     62 H         4.691595   2.732151   0.579631 H        1 UNL1     0.0365
     63 H         6.340549   3.603668   -0.252014 H        1 UNL1     0.0576
     64 H         8.347362   1.479792   -1.23111 H        1 UNL1     0.0615
     65 H         8.282564   4.596483   -1.430851 H        1 UNL1     0.0622
     66 H         -1.426848   5.332037   0.48527 H        1 UNL1     0.0645
     67 H         -1.851236   3.630011   -0.707713 H        1 UNL1     0.0362
     68 H         -2.5383   2.503598   1.045886 H        1 UNL1     0.0741
     69 H         -1.201074   0.528202   2.201754 H        1 UNL1     0.0359
     70 H         0.901781   0.734853   2.93306 H        1 UNL1     0.0600
     71 H         1.796166   -0.401557   1.316471 H        1 UNL1     0.0348
     72 H         3.355535   1.469325   1.301852 H        1 UNL1     0.0602
     73 H         0.767059   5.40678   -0.466645 H        1 UNL1     0.0628
     74 H         1.537351   5.444966   2.510908 H        1 UNL1     0.1022
     75 H         10.965686   2.233721   -3.413349 H        1 UNL1     0.0279
     76 H         10.811333   3.417176   -4.64984 H        1 UNL1     0.0279
     77 H         11.926776   3.64374   -3.242802 H        1 UNL1     0.0279
     78 H         9.081649   4.779853   -5.017018 H        1 UNL1     0.1553
     79 H         7.801227   3.310267   -4.660564 H        1 UNL1     0.1484
     80 H         4.05194   2.709124   -4.80537 H        1 UNL1     0.0317
     81 H         4.788735   4.234549   -5.274558 H        1 UNL1     0.0317
     82 H         6.702807   3.039588   -6.370961 H        1 UNL1     0.0428
     83 H         5.148245   2.561973   -7.016658 H        1 UNL1     0.0428
     84 H         6.918622   -0.064972   -4.176225 H        1 UNL1     0.0428
     85 H         7.830313   1.343838   -4.592394 H        1 UNL1     0.0428
     86 H         6.532759   1.424917   -2.462926 H        1 UNL1     0.0317
     87 H         5.038644   1.195614   -3.248669 H        1 UNL1     0.0317
     88 H         7.281696   0.849636   -7.366262 H        1 UNL1     0.0429
     89 H         6.920146   -0.634346   -6.481212 H        1 UNL1     0.0429
     90 H         4.378458   0.160534   -7.287918 H        1 UNL1     0.0308
     91 H         6.305904   1.004714   -9.530208 H        1 UNL1     0.0233
     92 H         4.537066   0.851792   -9.682928 H        1 UNL1     0.0233
     93 H         5.230196   2.087856   -8.655154 H        1 UNL1     0.0233
     94 H         4.678564   -1.518809   -9.144072 H        1 UNL1     0.0233
     95 H         6.379078   -1.628335   -8.663879 H        1 UNL1     0.0233
     96 H         5.100328   -2.084592   -7.514698 H        1 UNL1     0.0233
     97 H         4.150362   10.518567   -0.121381 H        1 UNL1     0.0280
     98 H         5.757508   11.136315   -0.390931 H        1 UNL1     0.0280
     99 H         4.574319   11.126445   -1.732459 H        1 UNL1     0.0280
     100 H         6.70206   10.705383   -3.038172 H        1 UNL1     0.2922
     101 H         4.695354   0.891952   2.442768 H        1 UNL1     0.0236
     102 H         6.009572   2.130367   2.515034 H        1 UNL1     0.0236
     103 H         6.315397   0.519948   1.941869 H        1 UNL1     0.0236
     104 H         4.328257   -0.556669   1.287601 H        1 UNL1     0.2098
     105 H         0.71229   1.277983   -0.932841 H        1 UNL1     0.0234
     106 H         1.293427   -0.409548   -1.00778 H        1 UNL1     0.0234
     107 H         0.0   -0.0   0.0 H        1 UNL1     0.0234
     108 H         1.193767   3.267309   1.743494 H        1 UNL1     0.2098
     109 H         1.083611   3.044218   -0.859395 H        1 UNL1     0.0234
     110 H         -0.171561   2.327346   -1.919319 H        1 UNL1     0.0234
     111 H         0.083118   4.037186   -1.898617 H        1 UNL1     0.0234
     112 H         -3.574417   -1.522148   1.444805 H        1 UNL1     0.0342
     113 H         -3.200926   0.105059   2.116324 H        1 UNL1     0.0342
     114 H         -4.406583   -0.079044   0.839427 H        1 UNL1     0.0342
     115 H         -2.656533   1.94505   3.310593 H        1 UNL1     0.0234
     116 H         -1.143024   1.955439   4.22162 H        1 UNL1     0.0234
     117 H         -1.651683   3.312689   3.195566 H        1 UNL1     0.0234
     118 H         0.949856   7.679991   -0.799022 H        1 UNL1     0.0309
     119 H         2.223406   7.775433   -2.054818 H        1 UNL1     0.0309
     120 H         1.463463   6.257601   -1.629579 H        1 UNL1     0.0309
     121 H         -0.352634   6.30027   2.783786 H        1 UNL1     0.0524
     122 H         -2.086808   6.040895   2.555269 H        1 UNL1     0.0524
     123 H         -1.271531   5.344008   3.977737 H        1 UNL1     0.0524
@<TRIPOS>BOND
     1     1     2    1
     2     1    42    1
     3     2     3    2
     4     3     4    1
     5     4     5    2
     6     5     7    1
     7     6    75    1
     8     6    76    1
     9     6    77    1
    10     7     9   am
    11     9    10    1
    12    10    11    2
    13    10    43    1
    14    11    14    1
    15    11    15    1
    16    12    13   ar
    17    12    27   ar
    18    12    43    1
    19    13    14    1
    20    13    30   ar
    21    14    17    2
    22    15    16    1
    23    16    17    1
    24    16    18    1
    25    16    22    1
    26    18    19    1
    27    19    20    1
    28    20    21    1
    29    21    22    1
    30    23    24    1
    31    23    88    1
    32    23    89    1
    33    24    25    1
    34    24    26    1
    35    24    90    1
    36    25    91    1
    37    25    92    1
    38    25    93    1
    39    26    94    1
    40    26    95    1
    41    26    96    1
    42    27    28   ar
    43    28    29   ar
    44    29    30   ar
    45    29    31    1
    46    30    33    1
    47    31    32    1
    48    32    33    1
    49    32    35    1
    50    34    97    1
    51    34    98    1
    52    34    99    1
    53    35    61    1
    54    36    37    1
    55    36    60    1
    56    37    38    1
    57    38    39    1
    58    39    40    1
    59    40    41    1
    60    41    42    1
    61    45   100    1
    62    47   101    1
    63    47   102    1
    64    47   103    1
    65    48   104    1
    66    49   105    1
    67    49   106    1
    68    49   107    1
    69    50   108    1
    70    51    59    1
    71    52   109    1
    72    52   110    1
    73    52   111    1
    74    53    54    1
    75    54    55    2
    76    54    56    1
    77    56   112    1
    78    56   113    1
    79    56   114    1
    80    57   115    1
    81    57   116    1
    82    57   117    1
    83    58   118    1
    84    58   119    1
    85    58   120    1
    86    59   121    1
    87    59   122    1
    88    59   123    1
    89    60    61    2
    90     1    47    1
    91     1    62    1
    92     2    63    1
    93     3    64    1
    94     4    65    1
    95     5     6    1
    96     7     8    2
    97     9    78    1
    98    15    79    1
    99    18    80    1
   100    18    81    1
   101    19    82    1
   102    19    83    1
   103    20    23    1
   104    21    84    1
   105    21    85    1
   106    22    86    1
   107    22    87    1
   108    27    45    1
   109    28    34    1
   110    32    58    1
   111    33    46    2
   112    36    51    1
   113    36    66    1
   114    37    52    1
   115    37    67    1
   116    38    53    1
   117    38    68    1
   118    42    48    1
   119    42    72    1
   120    43    44    2
   121    60    73    1
   122    61    74    1
   123    39    69    1
   124    39    57    1
   125    40    70    1
   126    40    50    1
   127    41    71    1
   128    41    49    1
