@<TRIPOS>MOLECULE
*****
 123 128 0 0 0
SMALL
GASTEIGER

@<TRIPOS>ATOM
     1 C         -0.142126   4.037394   -1.284624 C.3        1 UNL1     0.0009
     2 C         -1.551305   4.91209   -2.112969 C.2        1 UNL1     -0.0787
     3 C         -2.155899   5.473762   -3.302522 C.2        1 UNL1     -0.0649
     4 C         -3.710914   6.121258   -3.472915 C.2        1 UNL1     -0.0542
     5 C         -4.732769   6.460708   -4.393602 C.2        1 UNL1     0.0115
     6 C         -5.062045   6.618507   -5.903568 C.3        1 UNL1     -0.0348
     7 C         -6.226482   6.68302   -3.849187 C.2        1 UNL1     0.2441
     8 O         -6.716812   7.791708   -3.685131 O.2        1 UNL1     -0.2702
     9 N         -7.021891   5.524263   -3.82168 N.am        1 UNL1     -0.2772
     10 C         -6.860488   4.859247   -2.627936 C.2        1 UNL1     0.1049
     11 C         -5.811144   4.061805   -2.543168 C.2        1 UNL1     0.0801
     12 C         -6.845744   5.20559   -0.150606 C.ar        1 UNL1     0.0753
     13 C         -5.595157   4.509517   -0.139578 C.ar        1 UNL1     0.0305
     14 C         -5.103457   3.800894   -1.319043 C.2        1 UNL1     0.0924
     15 N         -4.979134   3.62392   -3.503659 N.pl3        1 UNL1     -0.3170
     16 C         -4.10741   2.641771   -2.915668 C.3        1 UNL1     0.1275
     17 N         -4.028899   3.029806   -1.459307 N.2        1 UNL1     -0.2557
     18 C         -4.839491   1.303893   -2.958583 C.3        1 UNL1     0.0016
     19 C         -5.234525   1.011609   -4.39737 C.3        1 UNL1     0.0026
     20 N         -4.029981   0.976229   -5.215201 N.3        1 UNL1     -0.3018
     21 C         -3.224783   2.199076   -5.189312 C.3        1 UNL1     0.0026
     22 C         -2.835169   2.471151   -3.735328 C.3        1 UNL1     0.0016
     23 C         -4.258519   0.414915   -6.531765 C.3        1 UNL1     0.0012
     24 C         -5.249865   1.282914   -7.322693 C.3        1 UNL1     -0.0339
     25 C         -6.133272   0.428097   -8.246238 C.3        1 UNL1     -0.0615
     26 C         -6.084215   2.120693   -6.369399 C.3        1 UNL1     -0.0615
     27 C         -7.364736   5.775617   1.009495 C.ar        1 UNL1     0.1347
     28 C         -6.745838   5.680873   2.243204 C.ar        1 UNL1     0.0342
     29 C         -5.492264   5.033419   2.220418 C.ar        1 UNL1     0.1435
     30 C         -4.942776   4.489083   1.058961 C.ar        1 UNL1     0.0774
     31 O         -4.81695   4.764905   3.359214 O.3        1 UNL1     -0.4436
     32 C         -3.890786   3.729877   2.996157 C.3        1 UNL1     0.3143
     33 C         -3.711125   3.866784   1.497761 C.2        1 UNL1     0.2504
     34 C         -7.358271   6.044599   3.567111 C.3        1 UNL1     -0.0327
     35 O         -2.631812   4.054273   3.598655 O.2        1 UNL1     -0.4528
     36 C         -0.915241   0.736626   4.272964 C.3        1 UNL1     0.0854
     37 C         -0.548089   -0.418441   3.263736 C.3        1 UNL1     0.0236
     38 C         0.997289   -0.846854   3.260057 C.3        1 UNL1     0.1131
     39 C         2.118433   0.259621   3.115082 C.3        1 UNL1     0.0200
     40 C         1.951342   1.490995   2.002322 C.3        1 UNL1     0.0661
     41 C         1.553824   1.302587   0.364002 C.3        1 UNL1     0.0091
     42 C         0.607371   2.396452   -0.764311 C.3        1 UNL1     0.0661
     43 C         -7.615108   5.223282   -1.419474 C.2        1 UNL1     0.2131
     44 O         -8.815688   5.418614   -1.475962 O.2        1 UNL1     -0.2851
     45 O         -8.565211   6.474928   0.903363 O.3        1 UNL1     -0.5056
     46 O         -2.757077   3.553293   0.821469 O.2        1 UNL1     -0.2836
     47 C         1.056424   5.005518   -1.094374 C.3        1 UNL1     -0.0566
     48 O         1.600665   2.313653   -1.862322 O.3        1 UNL1     -0.3909
     49 C         1.044959   -0.104593   0.144013 C.3        1 UNL1     -0.0577
     50 O         1.225152   2.57048   2.554665 O.3        1 UNL1     -0.3910
     51 O         0.172717   1.364295   4.913128 O.3        1 UNL1     -0.3753
     52 C         -1.38968   -0.331473   1.948779 C.3        1 UNL1     -0.0564
     53 O         1.25631   -2.154663   2.570949 O.3        1 UNL1     -0.4608
     54 C         0.706527   -3.360234   2.920616 C.2        1 UNL1     0.3042
     55 O         1.247158   -4.276463   3.538744 O.2        1 UNL1     -0.2512
     56 C         -0.736527   -3.499877   2.527159 C.3        1 UNL1     0.0332
     57 C         2.606761   0.647294   4.587977 C.3        1 UNL1     -0.0567
     58 C         -4.59736   2.386734   3.293226 C.3        1 UNL1     0.0210
     59 C         -0.159796   2.547235   5.638354 C.3        1 UNL1     0.0372
     60 C         -1.763502   1.820519   3.70658 C.2        1 UNL1     -0.0208
     61 C         -1.662563   3.145579   3.8196 C.2        1 UNL1     0.0882
     62 H         -0.709178   4.053161   -0.346053 H        1 UNL1     0.0365
     63 H         -2.194466   5.119714   -1.255235 H        1 UNL1     0.0576
     64 H         -1.68734   5.374504   -4.284209 H        1 UNL1     0.0615
     65 H         -4.053056   6.252094   -2.442719 H        1 UNL1     0.0622
     66 H         -1.527333   0.246194   5.042942 H        1 UNL1     0.0645
     67 H         -1.02338   -1.315096   3.698096 H        1 UNL1     0.0362
     68 H         1.087204   -1.219921   4.291686 H        1 UNL1     0.0741
     69 H         3.039261   -0.216426   2.805462 H        1 UNL1     0.0359
     70 H         2.996363   1.853264   1.960446 H        1 UNL1     0.0600
     71 H         2.568752   1.237451   -0.0749 H        1 UNL1     0.0348
     72 H         0.927441   3.030671   0.075115 H        1 UNL1     0.0602
     73 H         -2.619002   1.390739   3.247607 H        1 UNL1     0.0628
     74 H         -0.793265   3.665573   4.223537 H        1 UNL1     0.1022
     75 H         -6.16618   6.593272   -6.068744 H        1 UNL1     0.0279
     76 H         -4.777436   7.560829   -6.366272 H        1 UNL1     0.0279
     77 H         -4.733441   5.756745   -6.502807 H        1 UNL1     0.0279
     78 H         -6.732285   4.892857   -4.565678 H        1 UNL1     0.1553
     79 H         -5.201894   3.637021   -4.481994 H        1 UNL1     0.1484
     80 H         -4.181746   0.523397   -2.557381 H        1 UNL1     0.0317
     81 H         -5.728601   1.323684   -2.319253 H        1 UNL1     0.0317
     82 H         -5.951851   1.751979   -4.781047 H        1 UNL1     0.0428
     83 H         -5.756629   0.05432   -4.404823 H        1 UNL1     0.0428
     84 H         -2.286547   2.118356   -5.746993 H        1 UNL1     0.0428
     85 H         -3.745868   3.04176   -5.66436 H        1 UNL1     0.0428
     86 H         -2.141474   3.290648   -3.769941 H        1 UNL1     0.0317
     87 H         -2.229829   1.642402   -3.348242 H        1 UNL1     0.0317
     88 H         -3.300727   0.401253   -7.068181 H        1 UNL1     0.0429
     89 H         -4.605927   -0.624285   -6.467381 H        1 UNL1     0.0429
     90 H         -4.690228   1.997374   -7.93797 H        1 UNL1     0.0308
     91 H         -6.525029   -0.448753   -7.722061 H        1 UNL1     0.0233
     92 H         -6.967955   1.016037   -8.635133 H        1 UNL1     0.0233
     93 H         -5.586304   0.05739   -9.121589 H        1 UNL1     0.0233
     94 H         -7.015968   2.430154   -6.8551 H        1 UNL1     0.0233
     95 H         -6.344325   1.532533   -5.484881 H        1 UNL1     0.0233
     96 H         -5.545975   3.017844   -6.050989 H        1 UNL1     0.0233
     97 H         -8.315171   5.555013   3.721644 H        1 UNL1     0.0280
     98 H         -6.726193   5.742591   4.412406 H        1 UNL1     0.0280
     99 H         -7.516256   7.134539   3.61365 H        1 UNL1     0.0280
     100 H         -8.62991   7.028922   0.145388 H        1 UNL1     0.2922
     101 H         1.118376   5.313298   -0.050779 H        1 UNL1     0.0236
     102 H         1.030016   5.858622   -1.771498 H        1 UNL1     0.0236
     103 H         2.02225   4.514101   -1.299027 H        1 UNL1     0.0236
     104 H         1.989041   3.203101   -1.976412 H        1 UNL1     0.2098
     105 H         1.454092   -0.597976   -0.73405 H        1 UNL1     0.0234
     106 H         1.120441   -0.757272   1.013633 H        1 UNL1     0.0234
     107 H         -0.0   0.0   0.0 H        1 UNL1     0.0234
     108 H         1.187806   3.272208   1.876468 H        1 UNL1     0.2098
     109 H         -2.287738   -0.96372   1.987092 H        1 UNL1     0.0234
     110 H         -1.673964   0.693343   1.686715 H        1 UNL1     0.0234
     111 H         -0.817781   -0.679904   1.078449 H        1 UNL1     0.0234
     112 H         -1.118589   -4.472225   2.852604 H        1 UNL1     0.0342
     113 H         -1.348224   -2.688665   2.919083 H        1 UNL1     0.0342
     114 H         -0.798274   -3.463581   1.430785 H        1 UNL1     0.0342
     115 H         2.759053   -0.241974   5.215033 H        1 UNL1     0.0234
     116 H         3.531403   1.227436   4.610802 H        1 UNL1     0.0234
     117 H         1.847452   1.193528   5.173655 H        1 UNL1     0.0234
     118 H         -4.118418   1.541426   2.768749 H        1 UNL1     0.0309
     119 H         -4.654732   2.158705   4.362297 H        1 UNL1     0.0309
     120 H         -5.627886   2.362841   2.922347 H        1 UNL1     0.0309
     121 H         0.734359   3.168342   5.68386 H        1 UNL1     0.0524
     122 H         -0.947887   3.135902   5.139936 H        1 UNL1     0.0524
     123 H         -0.490816   2.292703   6.641216 H        1 UNL1     0.0524
@<TRIPOS>BOND
     1     1     2    1
     2     1    42    1
     3     2     3    2
     4     3     4    1
     5     4     5    2
     6     5     7    1
     7     6    75    1
     8     6    76    1
     9     6    77    1
    10     7     9   am
    11     9    10    1
    12    10    11    2
    13    10    43    1
    14    11    14    1
    15    11    15    1
    16    12    13   ar
    17    12    27   ar
    18    12    43    1
    19    13    14    1
    20    13    30   ar
    21    14    17    2
    22    15    16    1
    23    16    17    1
    24    16    18    1
    25    16    22    1
    26    18    19    1
    27    19    20    1
    28    20    21    1
    29    21    22    1
    30    23    24    1
    31    23    88    1
    32    23    89    1
    33    24    25    1
    34    24    26    1
    35    24    90    1
    36    25    91    1
    37    25    92    1
    38    25    93    1
    39    26    94    1
    40    26    95    1
    41    26    96    1
    42    27    28   ar
    43    28    29   ar
    44    29    30   ar
    45    29    31    1
    46    30    33    1
    47    31    32    1
    48    32    33    1
    49    32    35    1
    50    34    97    1
    51    34    98    1
    52    34    99    1
    53    35    61    1
    54    36    37    1
    55    36    60    1
    56    37    38    1
    57    38    39    1
    58    39    40    1
    59    40    41    1
    60    41    42    1
    61    45   100    1
    62    47   101    1
    63    47   102    1
    64    47   103    1
    65    48   104    1
    66    49   105    1
    67    49   106    1
    68    49   107    1
    69    50   108    1
    70    51    59    1
    71    52   109    1
    72    52   110    1
    73    52   111    1
    74    53    54    1
    75    54    55    2
    76    54    56    1
    77    56   112    1
    78    56   113    1
    79    56   114    1
    80    57   115    1
    81    57   116    1
    82    57   117    1
    83    58   118    1
    84    58   119    1
    85    58   120    1
    86    59   121    1
    87    59   122    1
    88    59   123    1
    89    60    61    2
    90     1    47    1
    91     1    62    1
    92     2    63    1
    93     3    64    1
    94     4    65    1
    95     5     6    1
    96     7     8    2
    97     9    78    1
    98    15    79    1
    99    18    80    1
   100    18    81    1
   101    19    82    1
   102    19    83    1
   103    20    23    1
   104    21    84    1
   105    21    85    1
   106    22    86    1
   107    22    87    1
   108    27    45    1
   109    28    34    1
   110    32    58    1
   111    33    46    2
   112    36    51    1
   113    36    66    1
   114    37    52    1
   115    37    67    1
   116    38    53    1
   117    38    68    1
   118    42    48    1
   119    42    72    1
   120    43    44    2
   121    60    73    1
   122    61    74    1
   123    39    69    1
   124    39    57    1
   125    40    70    1
   126    40    50    1
   127    41    71    1
   128    41    49    1
