@<TRIPOS>MOLECULE
*****
 123 128 0 0 0
SMALL
GASTEIGER

@<TRIPOS>ATOM
     1 C         4.685276   2.69024   -0.906949 C.3        1 UNL1     0.0009
     2 C         6.4658   2.546173   -1.402949 C.2        1 UNL1     -0.0787
     3 C         7.869168   2.508665   -1.049118 C.2        1 UNL1     -0.0649
     4 C         9.190022   2.201531   -2.062711 C.2        1 UNL1     -0.0542
     5 C         10.54797   1.800621   -2.110943 C.2        1 UNL1     0.0115
     6 C         11.807122   1.52091   -1.245137 C.3        1 UNL1     -0.0348
     7 C         11.156298   1.28345   -3.503588 C.2        1 UNL1     0.2441
     8 O         11.870301   1.975838   -4.215855 O.2        1 UNL1     -0.2702
     9 N         11.030501   -0.099211   -3.723986 N.am        1 UNL1     -0.2772
     10 C         9.828611   -0.38122   -4.331648 C.2        1 UNL1     0.1049
     11 C         8.781491   -0.479614   -3.532848 C.2        1 UNL1     0.0801
     12 C         8.359559   0.305494   -6.236285 C.ar        1 UNL1     0.0753
     13 C         7.294728   0.386322   -5.283284 C.ar        1 UNL1     0.0305
     14 C         7.442716   -0.13122   -3.924866 C.2        1 UNL1     0.0924
     15 N         8.721891   -0.557105   -2.192336 N.pl3        1 UNL1     -0.3170
     16 C         7.355832   -0.824223   -1.827942 C.3        1 UNL1     0.1275
     17 N         6.541957   -0.229722   -2.951285 N.2        1 UNL1     -0.2557
     18 C         7.152692   -2.334045   -1.910856 C.3        1 UNL1     0.0016
     19 C         8.183492   -3.012926   -1.023071 C.3        1 UNL1     0.0026
     20 N         8.012189   -2.535385   0.34208 N.3        1 UNL1     -0.3018
     21 C         8.128475   -1.085662   0.512814 C.3        1 UNL1     0.0026
     22 C         7.080946   -0.424119   -0.384369 C.3        1 UNL1     0.0016
     23 C         8.735869   -3.3317   1.313066 C.3        1 UNL1     0.0012
     24 C         8.089088   -4.717751   1.462375 C.3        1 UNL1     -0.0339
     25 C         8.202877   -5.239039   2.904376 C.3        1 UNL1     -0.0615
     26 C         6.643998   -4.670941   0.997293 C.3        1 UNL1     -0.0615
     27 C         8.172451   0.689905   -7.561931 C.ar        1 UNL1     0.1347
     28 C         6.959344   1.131635   -8.05922 C.ar        1 UNL1     0.0342
     29 C         5.938728   1.249299   -7.091924 C.ar        1 UNL1     0.1435
     30 C         6.121728   0.902215   -5.752796 C.ar        1 UNL1     0.0774
     31 O         4.670965   1.560833   -7.439385 O.3        1 UNL1     -0.4436
     32 C         3.873373   1.128646   -6.32676 C.3        1 UNL1     0.3143
     33 C         4.822376   1.101942   -5.145704 C.2        1 UNL1     0.2504
     34 C         6.617654   1.320314   -9.511029 C.3        1 UNL1     -0.0327
     35 O         2.911959   2.158721   -6.06622 O.2        1 UNL1     -0.4528
     36 C         -0.134216   0.40177   -4.637225 C.3        1 UNL1     0.0854
     37 C         -0.244187   -0.527348   -3.367513 C.3        1 UNL1     0.0236
     38 C         -1.338265   -0.069836   -2.287966 C.3        1 UNL1     0.1131
     39 C         -1.347803   1.422627   -1.763819 C.3        1 UNL1     0.0200
     40 C         0.080061   2.187094   -1.364781 C.3        1 UNL1     0.0661
     41 C         1.294137   1.562203   -0.358232 C.3        1 UNL1     0.0091
     42 C         3.112931   1.798093   -0.40003 C.3        1 UNL1     0.0661
     43 C         9.644679   -0.2855   -5.78745 C.2        1 UNL1     0.2131
     44 O         10.466685   -0.765034   -6.547114 O.2        1 UNL1     -0.2851
     45 O         9.272622   0.623262   -8.414351 O.3        1 UNL1     -0.5056
     46 O         4.566366   1.237415   -3.970136 O.2        1 UNL1     -0.2836
     47 C         4.343379   4.160838   -0.5458 C.3        1 UNL1     -0.0566
     48 O         3.224152   2.080463   1.051526 O.3        1 UNL1     -0.3909
     49 C         1.045463   0.084488   -0.153258 C.3        1 UNL1     -0.0577
     50 O         0.659947   2.791723   -2.503148 O.3        1 UNL1     -0.3910
     51 O         -0.874387   1.600636   -4.589288 O.3        1 UNL1     -0.3753
     52 C         1.146493   -1.105895   -2.9477 C.3        1 UNL1     -0.0564
     53 O         -1.67109   -1.133137   -1.282508 O.3        1 UNL1     -0.4608
     54 C         -1.930158   -0.918178   0.045877 C.2        1 UNL1     0.3042
     55 O         -1.173304   -1.114865   0.995785 O.2        1 UNL1     -0.2512
     56 C         -3.284968   -0.323512   0.305831 C.3        1 UNL1     0.0332
     57 C         -2.408148   2.235735   -2.642852 C.3        1 UNL1     -0.0567
     58 C         3.429407   -0.318604   -6.642814 C.3        1 UNL1     0.0210
     59 C         -2.022568   1.630439   -5.435844 C.3        1 UNL1     0.0372
     60 C         1.25373   0.769594   -5.028978 C.2        1 UNL1     -0.0208
     61 C         1.767076   1.946625   -5.389282 C.2        1 UNL1     0.0882
     62 H         4.401402   2.551805   -1.95717 H        1 UNL1     0.0365
     63 H         6.3723   2.51498   -2.490495 H        1 UNL1     0.0576
     64 H         8.197296   2.518642   -0.007321 H        1 UNL1     0.0615
     65 H         8.772756   2.292269   -3.069258 H        1 UNL1     0.0622
     66 H         -0.52799   -0.20947   -5.461466 H        1 UNL1     0.0645
     67 H         -0.693749   -1.458255   -3.754637 H        1 UNL1     0.0362
     68 H         -2.250207   -0.171413   -2.895886 H        1 UNL1     0.0741
     69 H         -1.9051   1.462591   -0.837411 H        1 UNL1     0.0359
     70 H         -0.316186   3.034448   -0.773139 H        1 UNL1     0.0600
     71 H         0.968039   1.974457   0.616787 H        1 UNL1     0.0348
     72 H         2.686012   2.628484   -0.980982 H        1 UNL1     0.0602
     73 H         1.837621   -0.112896   -5.115763 H        1 UNL1     0.0628
     74 H         1.255415   2.903034   -5.276485 H        1 UNL1     0.1022
     75 H         11.973192   2.349804   -0.515486 H        1 UNL1     0.0279
     76 H         11.767985   0.645703   -0.600506 H        1 UNL1     0.0279
     77 H         12.739625   1.554543   -1.827381 H        1 UNL1     0.0279
     78 H         11.0458   -0.590442   -2.832619 H        1 UNL1     0.1553
     79 H         9.499693   -0.817705   -1.61437 H        1 UNL1     0.1484
     80 H         6.130664   -2.575188   -1.594508 H        1 UNL1     0.0317
     81 H         7.252597   -2.686198   -2.943163 H        1 UNL1     0.0317
     82 H         9.208667   -2.833964   -1.379303 H        1 UNL1     0.0428
     83 H         8.021857   -4.088678   -1.098452 H        1 UNL1     0.0428
     84 H         7.916959   -0.745586   1.531352 H        1 UNL1     0.0428
     85 H         9.150869   -0.732104   0.320399 H        1 UNL1     0.0428
     86 H         7.104535   0.620573   -0.135269 H        1 UNL1     0.0317
     87 H         6.074795   -0.735417   -0.078021 H        1 UNL1     0.0317
     88 H         9.763426   -3.462864   0.94945 H        1 UNL1     0.0429
     89 H         8.800341   -2.81845   2.281153 H        1 UNL1     0.0429
     90 H         8.595913   -5.42444   0.794593 H        1 UNL1     0.0308
     91 H         7.93096   -4.466021   3.629364 H        1 UNL1     0.0233
     92 H         7.560965   -6.110717   3.051805 H        1 UNL1     0.0233
     93 H         9.220822   -5.563514   3.152047 H        1 UNL1     0.0233
     94 H         6.077103   -5.495847   1.44226 H        1 UNL1     0.0233
     95 H         6.179592   -3.733036   1.314507 H        1 UNL1     0.0233
     96 H         6.572322   -4.749908   -0.091098 H        1 UNL1     0.0233
     97 H         7.147163   0.618769   -10.148747 H        1 UNL1     0.0280
     98 H         5.549855   1.159628   -9.709126 H        1 UNL1     0.0280
     99 H         6.886775   2.342529   -9.823669 H        1 UNL1     0.0280
     100 H         10.054466   1.023544   -8.07654 H        1 UNL1     0.2922
     101 H         3.771388   4.614657   -1.354831 H        1 UNL1     0.0236
     102 H         5.21959   4.752389   -0.282541 H        1 UNL1     0.0236
     103 H         3.683707   4.228242   0.335383 H        1 UNL1     0.0236
     104 H         2.498685   2.690288   1.289814 H        1 UNL1     0.2098
     105 H         1.308183   -0.537562   -1.005222 H        1 UNL1     0.0234
     106 H         1.47325   -0.326761   0.760963 H        1 UNL1     0.0234
     107 H         0.0   0.0   0.0 H        1 UNL1     0.0234
     108 H         1.581311   3.019517   -2.273003 H        1 UNL1     0.2098
     109 H         1.597207   -1.720977   -3.739054 H        1 UNL1     0.0234
     110 H         1.857162   -0.333527   -2.634423 H        1 UNL1     0.0234
     111 H         1.063805   -1.762709   -2.071513 H        1 UNL1     0.0234
     112 H         -3.419234   -0.158478   1.379182 H        1 UNL1     0.0342
     113 H         -3.442247   0.59735   -0.253739 H        1 UNL1     0.0342
     114 H         -4.045302   -1.045932   -0.021531 H        1 UNL1     0.0342
     115 H         -2.905333   3.022304   -2.05864 H        1 UNL1     0.0234
     116 H         -1.980948   2.706419   -3.530549 H        1 UNL1     0.0234
     117 H         -3.272726   1.628605   -2.961977 H        1 UNL1     0.0234
     118 H         2.34728   -0.383993   -6.851937 H        1 UNL1     0.0309
     119 H         3.982628   -0.765692   -7.474836 H        1 UNL1     0.0309
     120 H         3.563418   -0.994813   -5.79141 H        1 UNL1     0.0309
     121 H         -2.229164   2.673351   -5.674606 H        1 UNL1     0.0524
     122 H         -1.854692   1.099003   -6.387385 H        1 UNL1     0.0524
     123 H         -2.874622   1.185979   -4.929331 H        1 UNL1     0.0524
@<TRIPOS>BOND
     1     1     2    1
     2     1    42    1
     3     2     3    2
     4     3     4    1
     5     4     5    2
     6     5     7    1
     7     6    75    1
     8     6    76    1
     9     6    77    1
    10     7     9   am
    11     9    10    1
    12    10    11    2
    13    10    43    1
    14    11    14    1
    15    11    15    1
    16    12    13   ar
    17    12    27   ar
    18    12    43    1
    19    13    14    1
    20    13    30   ar
    21    14    17    2
    22    15    16    1
    23    16    17    1
    24    16    18    1
    25    16    22    1
    26    18    19    1
    27    19    20    1
    28    20    21    1
    29    21    22    1
    30    23    24    1
    31    23    88    1
    32    23    89    1
    33    24    25    1
    34    24    26    1
    35    24    90    1
    36    25    91    1
    37    25    92    1
    38    25    93    1
    39    26    94    1
    40    26    95    1
    41    26    96    1
    42    27    28   ar
    43    28    29   ar
    44    29    30   ar
    45    29    31    1
    46    30    33    1
    47    31    32    1
    48    32    33    1
    49    32    35    1
    50    34    97    1
    51    34    98    1
    52    34    99    1
    53    35    61    1
    54    36    37    1
    55    36    60    1
    56    37    38    1
    57    38    39    1
    58    39    40    1
    59    40    41    1
    60    41    42    1
    61    45   100    1
    62    47   101    1
    63    47   102    1
    64    47   103    1
    65    48   104    1
    66    49   105    1
    67    49   106    1
    68    49   107    1
    69    50   108    1
    70    51    59    1
    71    52   109    1
    72    52   110    1
    73    52   111    1
    74    53    54    1
    75    54    55    2
    76    54    56    1
    77    56   112    1
    78    56   113    1
    79    56   114    1
    80    57   115    1
    81    57   116    1
    82    57   117    1
    83    58   118    1
    84    58   119    1
    85    58   120    1
    86    59   121    1
    87    59   122    1
    88    59   123    1
    89    60    61    2
    90     1    47    1
    91     1    62    1
    92     2    63    1
    93     3    64    1
    94     4    65    1
    95     5     6    1
    96     7     8    2
    97     9    78    1
    98    15    79    1
    99    18    80    1
   100    18    81    1
   101    19    82    1
   102    19    83    1
   103    20    23    1
   104    21    84    1
   105    21    85    1
   106    22    86    1
   107    22    87    1
   108    27    45    1
   109    28    34    1
   110    32    58    1
   111    33    46    2
   112    36    51    1
   113    36    66    1
   114    37    52    1
   115    37    67    1
   116    38    53    1
   117    38    68    1
   118    42    48    1
   119    42    72    1
   120    43    44    2
   121    60    73    1
   122    61    74    1
   123    39    69    1
   124    39    57    1
   125    40    70    1
   126    40    50    1
   127    41    71    1
   128    41    49    1
