@<TRIPOS>MOLECULE
*****
 123 128 0 0 0
SMALL
GASTEIGER

@<TRIPOS>ATOM
     1 C         -1.072872   0.308551   3.974802 C.3        1 UNL1     0.0009
     2 C         -2.67127   -0.194869   4.767726 C.2        1 UNL1     -0.0787
     3 C         -4.003084   0.135425   5.229488 C.2        1 UNL1     -0.0649
     4 C         -5.180974   -0.91342   5.845001 C.2        1 UNL1     -0.0542
     5 C         -6.563797   -1.084127   6.101394 C.2        1 UNL1     0.0115
     6 C         -7.93441   -0.353824   6.138815 C.3        1 UNL1     -0.0348
     7 C         -7.130977   -2.565381   6.348744 C.2        1 UNL1     0.2441
     8 O         -7.396401   -2.999099   7.461382 O.2        1 UNL1     -0.2702
     9 N         -7.548386   -3.237851   5.186975 N.am        1 UNL1     -0.2772
     10 C         -6.493267   -3.913099   4.61769 C.2        1 UNL1     0.1049
     11 C         -5.697663   -3.200807   3.840596 C.2        1 UNL1     0.0801
     12 C         -4.624272   -5.486814   5.153987 C.ar        1 UNL1     0.0753
     13 C         -3.761187   -4.569243   4.47446 C.ar        1 UNL1     0.0305
     14 C         -4.292675   -3.462302   3.682466 C.2        1 UNL1     0.0924
     15 N         -5.860454   -1.964476   3.339085 N.pl3        1 UNL1     -0.3170
     16 C         -4.785256   -1.720185   2.41468 C.3        1 UNL1     0.1275
     17 N         -3.65347   -2.584407   2.914584 N.2        1 UNL1     -0.2557
     18 C         -5.203428   -2.306348   1.069597 C.3        1 UNL1     0.0016
     19 C         -6.532899   -1.690855   0.663069 C.3        1 UNL1     0.0026
     20 N         -6.372795   -0.245816   0.57788 N.3        1 UNL1     -0.3018
     21 C         -5.9127   0.402311   1.807764 C.3        1 UNL1     0.0026
     22 C         -4.573859   -0.227967   2.195256 C.3        1 UNL1     0.0016
     23 C         -7.484016   0.406546   -0.085637 C.3        1 UNL1     0.0012
     24 C         -8.361467   -0.627174   -0.809003 C.3        1 UNL1     -0.0339
     25 C         -8.95777   -0.051001   -2.103802 C.3        1 UNL1     -0.0615
     26 C         -7.563933   -1.892001   -1.075333 C.3        1 UNL1     -0.0615
     27 C         -4.116037   -6.607828   5.806017 C.ar        1 UNL1     0.1347
     28 C         -2.772126   -6.936308   5.813324 C.ar        1 UNL1     0.0342
     29 C         -1.935998   -5.992608   5.179696 C.ar        1 UNL1     0.1435
     30 C         -2.427226   -4.846396   4.553506 C.ar        1 UNL1     0.0774
     31 O         -0.616281   -6.224017   5.007062 O.3        1 UNL1     -0.4436
     32 C         -0.224982   -5.326418   3.957264 C.3        1 UNL1     0.3143
     33 C         -1.256228   -4.216366   3.980278 C.2        1 UNL1     0.2504
     34 C         -2.18631   -8.242904   6.271282 C.3        1 UNL1     -0.0327
     35 O         1.025813   -4.741877   4.340769 O.2        1 UNL1     -0.4528
     36 C         2.866653   -4.006178   1.103773 C.3        1 UNL1     0.0854
     37 C         2.413303   -3.122675   -0.121551 C.3        1 UNL1     0.0236
     38 C         3.438296   -1.95969   -0.532159 C.3        1 UNL1     0.1131
     39 C         3.980593   -0.965169   0.571974 C.3        1 UNL1     0.0200
     40 C         2.946083   -0.322994   1.712079 C.3        1 UNL1     0.0661
     41 C         1.456573   0.423741   1.393714 C.3        1 UNL1     0.0091
     42 C         -0.084836   0.475942   2.38706 C.3        1 UNL1     0.0661
     43 C         -6.087158   -5.253577   5.065518 C.2        1 UNL1     0.2131
     44 O         -6.919507   -6.124484   5.242862 O.2        1 UNL1     -0.2851
     45 O         -5.019178   -7.425652   6.481989 O.3        1 UNL1     -0.5056
     46 O         -1.132329   -3.065283   3.626004 O.2        1 UNL1     -0.2836
     47 C         -0.216711   1.139926   4.96767 C.3        1 UNL1     -0.0566
     48 O         -0.271136   1.938804   2.230717 O.3        1 UNL1     -0.3909
     49 C         1.052806   0.119229   -0.031677 C.3        1 UNL1     -0.0577
     50 O         2.825028   -1.188458   2.822953 O.3        1 UNL1     -0.3910
     51 O         4.015503   -3.563752   1.790676 O.3        1 UNL1     -0.3753
     52 C         0.864126   -2.911879   -0.145289 C.3        1 UNL1     -0.0564
     53 O         3.168268   -1.371662   -1.886276 O.3        1 UNL1     -0.4608
     54 C         2.30174   -1.882884   -2.816713 C.2        1 UNL1     0.3042
     55 O         2.584539   -2.526623   -3.826397 O.2        1 UNL1     -0.2512
     56 C         0.855622   -1.647316   -2.485106 C.3        1 UNL1     0.0332
     57 C         5.390052   -1.527575   1.077244 C.3        1 UNL1     -0.0567
     58 C         -0.367995   -6.112841   2.6334 C.3        1 UNL1     0.0210
     59 C         3.927189   -3.632931   3.213096 C.3        1 UNL1     0.0372
     60 C         1.816359   -4.242296   2.131533 C.2        1 UNL1     -0.0208
     61 C         1.880389   -4.1832   3.46238 C.2        1 UNL1     0.0882
     62 H         -0.727593   -0.729135   4.056665 H        1 UNL1     0.0365
     63 H         -2.449256   -1.230427   5.033808 H        1 UNL1     0.0576
     64 H         -4.439342   1.122369   5.059997 H        1 UNL1     0.0615
     65 H         -4.628164   -1.833971   6.051085 H        1 UNL1     0.0622
     66 H         3.087992   -4.990411   0.667494 H        1 UNL1     0.0645
     67 H         2.494845   -3.802807   -0.98719 H        1 UNL1     0.0362
     68 H         4.304804   -2.572653   -0.823646 H        1 UNL1     0.0741
     69 H         4.372283   -0.082898   0.083523 H        1 UNL1     0.0359
     70 H         3.566408   0.515979   2.081378 H        1 UNL1     0.0600
     71 H         1.783884   1.478317   1.305991 H        1 UNL1     0.0348
     72 H         0.718275   0.204446   3.0875 H        1 UNL1     0.0602
     73 H         0.942526   -4.616211   1.658404 H        1 UNL1     0.0628
     74 H         2.715399   -3.759483   4.02136 H        1 UNL1     0.1022
     75 H         -7.84716   0.615783   6.685884 H        1 UNL1     0.0279
     76 H         -8.346322   -0.045812   5.180418 H        1 UNL1     0.0279
     77 H         -8.680853   -0.881453   6.750479 H        1 UNL1     0.0279
     78 H         -7.884813   -2.562941   4.503315 H        1 UNL1     0.1553
     79 H         -6.748728   -1.502186   3.274359 H        1 UNL1     0.1484
     80 H         -4.42182   -2.096251   0.32952 H        1 UNL1     0.0317
     81 H         -5.294092   -3.396261   1.12892 H        1 UNL1     0.0317
     82 H         -7.337092   -1.959367   1.363845 H        1 UNL1     0.0428
     83 H         -6.813332   -2.123971   -0.297565 H        1 UNL1     0.0428
     84 H         -5.724217   1.47444   1.69452 H        1 UNL1     0.0428
     85 H         -6.666107   0.346684   2.605637 H        1 UNL1     0.0428
     86 H         -4.205334   0.357425   3.01714 H        1 UNL1     0.0317
     87 H         -3.833702   -0.050725   1.405415 H        1 UNL1     0.0317
     88 H         -8.092163   0.907214   0.679074 H        1 UNL1     0.0429
     89 H         -7.13468   1.183257   -0.778067 H        1 UNL1     0.0429
     90 H         -9.184057   -0.925334   -0.148202 H        1 UNL1     0.0308
     91 H         -8.199978   0.477535   -2.689894 H        1 UNL1     0.0233
     92 H         -9.394427   -0.844651   -2.714588 H        1 UNL1     0.0233
     93 H         -9.765709   0.664672   -1.90917 H        1 UNL1     0.0233
     94 H         -8.016869   -2.458269   -1.896324 H        1 UNL1     0.0233
     95 H         -6.541787   -1.634759   -1.366895 H        1 UNL1     0.0233
     96 H         -7.527682   -2.534505   -0.191115 H        1 UNL1     0.0233
     97 H         -1.496759   -8.11212   7.099922 H        1 UNL1     0.0280
     98 H         -2.956385   -8.939236   6.628161 H        1 UNL1     0.0280
     99 H         -1.639891   -8.714541   5.438167 H        1 UNL1     0.0280
     100 H         -4.936595   -8.343097   6.289386 H        1 UNL1     0.2922
     101 H         0.833474   0.867434   4.86512 H        1 UNL1     0.0236
     102 H         -0.560404   1.063012   5.998661 H        1 UNL1     0.0236
     103 H         -0.249463   2.218539   4.740261 H        1 UNL1     0.0236
     104 H         -1.087946   2.078424   1.712742 H        1 UNL1     0.2098
     105 H         1.276667   0.912048   -0.740998 H        1 UNL1     0.0234
     106 H         1.408583   -0.83861   -0.41101 H        1 UNL1     0.0234
     107 H         0.0   -0.0   0.0 H        1 UNL1     0.0234
     108 H         3.59481   -1.026876   3.401828 H        1 UNL1     0.2098
     109 H         0.344899   -3.704799   -0.70152 H        1 UNL1     0.0234
     110 H         0.426986   -2.819318   0.854754 H        1 UNL1     0.0234
     111 H         0.591156   -1.971909   -0.643175 H        1 UNL1     0.0234
     112 H         0.237721   -1.819247   -3.371664 H        1 UNL1     0.0342
     113 H         0.521384   -2.262057   -1.650707 H        1 UNL1     0.0342
     114 H         0.737941   -0.59513   -2.191473 H        1 UNL1     0.0342
     115 H         5.323885   -1.942948   2.092269 H        1 UNL1     0.0234
     116 H         5.816481   -2.299603   0.433676 H        1 UNL1     0.0234
     117 H         6.152349   -0.742015   1.217741 H        1 UNL1     0.0234
     118 H         0.291146   -5.715435   1.841814 H        1 UNL1     0.0309
     119 H         -0.182709   -7.185489   2.748711 H        1 UNL1     0.0309
     120 H         -1.368908   -6.023181   2.197234 H        1 UNL1     0.0309
     121 H         4.606022   -2.885216   3.622323 H        1 UNL1     0.0524
     122 H         2.914444   -3.39877   3.581273 H        1 UNL1     0.0524
     123 H         4.207934   -4.623575   3.559363 H        1 UNL1     0.0524
@<TRIPOS>BOND
     1     1     2    1
     2     1    42    1
     3     2     3    2
     4     3     4    1
     5     4     5    2
     6     5     7    1
     7     6    75    1
     8     6    76    1
     9     6    77    1
    10     7     9   am
    11     9    10    1
    12    10    11    2
    13    10    43    1
    14    11    14    1
    15    11    15    1
    16    12    13   ar
    17    12    27   ar
    18    12    43    1
    19    13    14    1
    20    13    30   ar
    21    14    17    2
    22    15    16    1
    23    16    17    1
    24    16    18    1
    25    16    22    1
    26    18    19    1
    27    19    20    1
    28    20    21    1
    29    21    22    1
    30    23    24    1
    31    23    88    1
    32    23    89    1
    33    24    25    1
    34    24    26    1
    35    24    90    1
    36    25    91    1
    37    25    92    1
    38    25    93    1
    39    26    94    1
    40    26    95    1
    41    26    96    1
    42    27    28   ar
    43    28    29   ar
    44    29    30   ar
    45    29    31    1
    46    30    33    1
    47    31    32    1
    48    32    33    1
    49    32    35    1
    50    34    97    1
    51    34    98    1
    52    34    99    1
    53    35    61    1
    54    36    37    1
    55    36    60    1
    56    37    38    1
    57    38    39    1
    58    39    40    1
    59    40    41    1
    60    41    42    1
    61    45   100    1
    62    47   101    1
    63    47   102    1
    64    47   103    1
    65    48   104    1
    66    49   105    1
    67    49   106    1
    68    49   107    1
    69    50   108    1
    70    51    59    1
    71    52   109    1
    72    52   110    1
    73    52   111    1
    74    53    54    1
    75    54    55    2
    76    54    56    1
    77    56   112    1
    78    56   113    1
    79    56   114    1
    80    57   115    1
    81    57   116    1
    82    57   117    1
    83    58   118    1
    84    58   119    1
    85    58   120    1
    86    59   121    1
    87    59   122    1
    88    59   123    1
    89    60    61    2
    90     1    47    1
    91     1    62    1
    92     2    63    1
    93     3    64    1
    94     4    65    1
    95     5     6    1
    96     7     8    2
    97     9    78    1
    98    15    79    1
    99    18    80    1
   100    18    81    1
   101    19    82    1
   102    19    83    1
   103    20    23    1
   104    21    84    1
   105    21    85    1
   106    22    86    1
   107    22    87    1
   108    27    45    1
   109    28    34    1
   110    32    58    1
   111    33    46    2
   112    36    51    1
   113    36    66    1
   114    37    52    1
   115    37    67    1
   116    38    53    1
   117    38    68    1
   118    42    48    1
   119    42    72    1
   120    43    44    2
   121    60    73    1
   122    61    74    1
   123    39    69    1
   124    39    57    1
   125    40    70    1
   126    40    50    1
   127    41    71    1
   128    41    49    1
