@<TRIPOS>MOLECULE
*****
 123 128 0 0 0
SMALL
GASTEIGER

@<TRIPOS>ATOM
     1 C         5.171235   1.7483   0.448377 C.3        1 UNL1     0.0009
     2 C         6.601429   2.552803   -0.414386 C.2        1 UNL1     -0.0787
     3 C         7.878054   2.453322   -1.089943 C.2        1 UNL1     -0.0649
     4 C         8.749861   3.687113   -1.854189 C.2        1 UNL1     -0.0542
     5 C         9.762601   3.978119   -2.801157 C.2        1 UNL1     0.0115
     6 C         10.883874   3.35112   -3.674623 C.3        1 UNL1     -0.0348
     7 C         9.853541   5.460448   -3.410599 C.2        1 UNL1     0.2441
     8 O         10.680529   6.282463   -3.040587 O.2        1 UNL1     -0.2702
     9 N         9.094258   5.665849   -4.575697 N.am        1 UNL1     -0.2772
     10 C         7.814116   6.0533   -4.252525 C.2        1 UNL1     0.1049
     11 C         6.970415   5.082523   -3.952556 C.2        1 UNL1     0.0801
     12 C         6.527127   7.662357   -2.834102 C.ar        1 UNL1     0.0753
     13 C         5.771328   6.535289   -2.379025 C.ar        1 UNL1     0.0305
     14 C         5.882929   5.228601   -3.023356 C.2        1 UNL1     0.0924
     15 N         7.091492   3.75328   -4.110614 N.pl3        1 UNL1     -0.3170
     16 C         5.823986   3.154879   -3.785652 C.3        1 UNL1     0.1275
     17 N         5.195463   4.111723   -2.802223 N.2        1 UNL1     -0.2557
     18 C         4.961322   3.212269   -5.042719 C.3        1 UNL1     0.0016
     19 C         5.707225   2.526317   -6.176161 C.3        1 UNL1     0.0026
     20 N         5.980058   1.148728   -5.790365 N.3        1 UNL1     -0.3018
     21 C         6.753021   0.99   -4.556792 C.3        1 UNL1     0.0026
     22 C         5.983197   1.682374   -3.430789 C.3        1 UNL1     0.0016
     23 C         6.415712   0.327433   -6.902266 C.3        1 UNL1     0.0012
     24 C         5.252587   0.076767   -7.874923 C.3        1 UNL1     -0.0339
     25 C         5.338352   0.997517   -9.103305 C.3        1 UNL1     -0.0615
     26 C         5.215182   -1.38776   -8.275599 C.3        1 UNL1     -0.0615
     27 C         6.326966   8.930903   -2.294799 C.ar        1 UNL1     0.1347
     28 C         5.375486   9.202109   -1.327751 C.ar        1 UNL1     0.0342
     29 C         4.677281   8.068513   -0.860167 C.ar        1 UNL1     0.1435
     30 C         4.892487   6.785681   -1.36539 C.ar        1 UNL1     0.0774
     31 O         3.643005   8.183599   0.001247 O.3        1 UNL1     -0.4436
     32 C         2.919963   6.950739   -0.133437 C.3        1 UNL1     0.3143
     33 C         3.928854   5.9566   -0.67199 C.2        1 UNL1     0.2504
     34 C         4.932406   10.568975   -0.885646 C.3        1 UNL1     -0.0327
     35 O         2.56951   6.516091   1.186229 O.2        1 UNL1     -0.4528
     36 C         -0.676968   4.584082   0.817708 C.3        1 UNL1     0.0854
     37 C         -0.989552   3.32223   -0.075344 C.3        1 UNL1     0.0236
     38 C         -1.584223   2.062508   0.719145 C.3        1 UNL1     0.1131
     39 C         -0.848448   1.533351   2.015639 C.3        1 UNL1     0.0200
     40 C         0.812982   1.387474   2.044057 C.3        1 UNL1     0.0661
     41 C         1.763024   0.616667   0.868946 C.3        1 UNL1     0.0091
     42 C         3.466238   0.977973   0.291085 C.3        1 UNL1     0.0661
     43 C         7.468342   7.45275   -3.962126 C.2        1 UNL1     0.2131
     44 O         7.862805   8.349655   -4.685104 O.2        1 UNL1     -0.2851
     45 O         7.135862   9.965129   -2.76117 O.3        1 UNL1     -0.5056
     46 O         3.945592   4.75326   -0.539534 O.2        1 UNL1     -0.2836
     47 C         5.578718   1.320888   1.884085 C.3        1 UNL1     -0.0566
     48 O         3.915108   -0.433114   0.371487 O.3        1 UNL1     -0.3909
     49 C         0.919127   0.382413   -0.364122 C.3        1 UNL1     -0.0577
     50 O         1.416505   2.605782   2.430331 O.3        1 UNL1     -0.3910
     51 O         -0.79023   4.396529   2.210341 O.3        1 UNL1     -0.3753
     52 C         0.045834   3.159777   -1.235746 C.3        1 UNL1     -0.0564
     53 O         -2.194071   1.022316   -0.174395 O.3        1 UNL1     -0.4608
     54 C         -2.395004   -0.292031   0.15734 C.2        1 UNL1     0.3042
     55 O         -1.815855   -1.27535   -0.30256 O.2        1 UNL1     -0.2512
     56 C         -3.407905   -0.48864   1.249168 C.3        1 UNL1     0.0332
     57 C         -1.559452   2.204414   3.281469 C.3        1 UNL1     -0.0567
     58 C         1.836388   7.194454   -1.20954 C.3        1 UNL1     0.0210
     59 C         -1.097369   5.576722   2.951068 C.3        1 UNL1     0.0372
     60 C         0.650329   5.2125   0.57577 C.2        1 UNL1     -0.0208
     61 C         1.570127   5.648824   1.43736 C.2        1 UNL1     0.0882
     62 H         4.696236   2.732717   0.537875 H        1 UNL1     0.0365
     63 H         6.336252   3.606823   -0.308595 H        1 UNL1     0.0576
     64 H         8.333747   1.486031   -1.313099 H        1 UNL1     0.0615
     65 H         8.265711   4.603148   -1.504958 H        1 UNL1     0.0622
     66 H         -1.423849   5.33032   0.512186 H        1 UNL1     0.0645
     67 H         -1.85978   3.63088   -0.680322 H        1 UNL1     0.0362
     68 H         -2.528416   2.500142   1.077612 H        1 UNL1     0.0741
     69 H         -1.178665   0.522629   2.215153 H        1 UNL1     0.0359
     70 H         0.931489   0.728447   2.925363 H        1 UNL1     0.0600
     71 H         1.809708   -0.403863   1.297077 H        1 UNL1     0.0348
     72 H         3.368128   1.467683   1.270817 H        1 UNL1     0.0602
     73 H         0.760165   5.408155   -0.46197 H        1 UNL1     0.0628
     74 H         1.560895   5.439781   2.507619 H        1 UNL1     0.1022
     75 H         10.910514   2.242644   -3.541943 H        1 UNL1     0.0279
     76 H         10.775283   3.455571   -4.751827 H        1 UNL1     0.0279
     77 H         11.892461   3.63391   -3.339239 H        1 UNL1     0.0279
     78 H         9.027958   4.795123   -5.098686 H        1 UNL1     0.1553
     79 H         7.751817   3.324196   -4.732538 H        1 UNL1     0.1484
     80 H         4.001475   2.721861   -4.840333 H        1 UNL1     0.0317
     81 H         4.73284   4.248665   -5.313513 H        1 UNL1     0.0317
     82 H         6.636042   3.057019   -6.432219 H        1 UNL1     0.0428
     83 H         5.075133   2.580262   -7.063066 H        1 UNL1     0.0428
     84 H         6.875514   -0.052512   -4.246993 H        1 UNL1     0.0428
     85 H         7.782355   1.357627   -4.669217 H        1 UNL1     0.0428
     86 H         6.506646   1.433261   -2.526393 H        1 UNL1     0.0317
     87 H         5.00465   1.205164   -3.297322 H        1 UNL1     0.0317
     88 H         7.207753   0.868238   -7.436583 H        1 UNL1     0.0429
     89 H         6.85082   -0.617912   -6.553298 H        1 UNL1     0.0429
     90 H         4.304738   0.270417   -7.358884 H        1 UNL1     0.0308
     91 H         6.289574   0.871638   -9.629076 H        1 UNL1     0.0233
     92 H         4.516918   0.796353   -9.794961 H        1 UNL1     0.0233
     93 H         5.260421   2.058395   -8.836287 H        1 UNL1     0.0233
     94 H         4.5318   -1.531107   -9.119564 H        1 UNL1     0.0233
     95 H         6.210632   -1.715059   -8.588516 H        1 UNL1     0.0233
     96 H         4.879791   -2.019385   -7.448236 H        1 UNL1     0.0233
     97 H         4.138518   10.520634   -0.146298 H        1 UNL1     0.0280
     98 H         5.74657   11.136063   -0.415748 H        1 UNL1     0.0280
     99 H         4.560864   11.135651   -1.755088 H        1 UNL1     0.0280
     100 H         6.666748   10.720052   -3.070437 H        1 UNL1     0.2922
     101 H         4.716676   0.899647   2.400896 H        1 UNL1     0.0236
     102 H         6.045258   2.123614   2.454134 H        1 UNL1     0.0236
     103 H         6.325574   0.50949   1.878354 H        1 UNL1     0.0236
     104 H         4.336068   -0.559447   1.244301 H        1 UNL1     0.2098
     105 H         0.702208   1.280423   -0.937128 H        1 UNL1     0.0234
     106 H         1.283195   -0.406693   -1.021917 H        1 UNL1     0.0234
     107 H         0.0   -0.0   0.0 H        1 UNL1     0.0234
     108 H         1.227645   3.258346   1.728719 H        1 UNL1     0.2098
     109 H         1.075033   3.059025   -0.863846 H        1 UNL1     0.0234
     110 H         -0.185384   2.324098   -1.905016 H        1 UNL1     0.0234
     111 H         0.053275   4.036355   -1.897187 H        1 UNL1     0.0234
     112 H         -3.504969   -1.553981   1.479327 H        1 UNL1     0.0342
     113 H         -3.163038   0.083421   2.142829 H        1 UNL1     0.0342
     114 H         -4.380809   -0.133272   0.882651 H        1 UNL1     0.0342
     115 H         -2.631383   1.966612   3.321477 H        1 UNL1     0.0234
     116 H         -1.12324   1.916511   4.240051 H        1 UNL1     0.0234
     117 H         -1.587234   3.306783   3.237306 H        1 UNL1     0.0234
     118 H         0.936817   7.677972   -0.79003 H        1 UNL1     0.0309
     119 H         2.197992   7.784959   -2.057331 H        1 UNL1     0.0309
     120 H         1.447588   6.262053   -1.633294 H        1 UNL1     0.0309
     121 H         -0.260033   6.264667   2.837242 H        1 UNL1     0.0524
     122 H         -1.999138   6.085775   2.57197 H        1 UNL1     0.0524
     123 H         -1.243751   5.334725   3.999926 H        1 UNL1     0.0524
@<TRIPOS>BOND
     1     1     2    1
     2     1    42    1
     3     2     3    2
     4     3     4    1
     5     4     5    2
     6     5     7    1
     7     6    75    1
     8     6    76    1
     9     6    77    1
    10     7     9   am
    11     9    10    1
    12    10    11    2
    13    10    43    1
    14    11    14    1
    15    11    15    1
    16    12    13   ar
    17    12    27   ar
    18    12    43    1
    19    13    14    1
    20    13    30   ar
    21    14    17    2
    22    15    16    1
    23    16    17    1
    24    16    18    1
    25    16    22    1
    26    18    19    1
    27    19    20    1
    28    20    21    1
    29    21    22    1
    30    23    24    1
    31    23    88    1
    32    23    89    1
    33    24    25    1
    34    24    26    1
    35    24    90    1
    36    25    91    1
    37    25    92    1
    38    25    93    1
    39    26    94    1
    40    26    95    1
    41    26    96    1
    42    27    28   ar
    43    28    29   ar
    44    29    30   ar
    45    29    31    1
    46    30    33    1
    47    31    32    1
    48    32    33    1
    49    32    35    1
    50    34    97    1
    51    34    98    1
    52    34    99    1
    53    35    61    1
    54    36    37    1
    55    36    60    1
    56    37    38    1
    57    38    39    1
    58    39    40    1
    59    40    41    1
    60    41    42    1
    61    45   100    1
    62    47   101    1
    63    47   102    1
    64    47   103    1
    65    48   104    1
    66    49   105    1
    67    49   106    1
    68    49   107    1
    69    50   108    1
    70    51    59    1
    71    52   109    1
    72    52   110    1
    73    52   111    1
    74    53    54    1
    75    54    55    2
    76    54    56    1
    77    56   112    1
    78    56   113    1
    79    56   114    1
    80    57   115    1
    81    57   116    1
    82    57   117    1
    83    58   118    1
    84    58   119    1
    85    58   120    1
    86    59   121    1
    87    59   122    1
    88    59   123    1
    89    60    61    2
    90     1    47    1
    91     1    62    1
    92     2    63    1
    93     3    64    1
    94     4    65    1
    95     5     6    1
    96     7     8    2
    97     9    78    1
    98    15    79    1
    99    18    80    1
   100    18    81    1
   101    19    82    1
   102    19    83    1
   103    20    23    1
   104    21    84    1
   105    21    85    1
   106    22    86    1
   107    22    87    1
   108    27    45    1
   109    28    34    1
   110    32    58    1
   111    33    46    2
   112    36    51    1
   113    36    66    1
   114    37    52    1
   115    37    67    1
   116    38    53    1
   117    38    68    1
   118    42    48    1
   119    42    72    1
   120    43    44    2
   121    60    73    1
   122    61    74    1
   123    39    69    1
   124    39    57    1
   125    40    70    1
   126    40    50    1
   127    41    71    1
   128    41    49    1
