@<TRIPOS>MOLECULE
*****
 123 128 0 0 0
SMALL
GASTEIGER

@<TRIPOS>ATOM
     1 C         5.167297   1.748839   0.489769 C.3        1 UNL1     0.0009
     2 C         6.603557   2.555421   -0.36089 C.2        1 UNL1     -0.0787
     3 C         7.885139   2.457613   -1.027244 C.2        1 UNL1     -0.0649
     4 C         8.762179   3.693136   -1.782652 C.2        1 UNL1     -0.0542
     5 C         9.781764   3.986273   -2.721585 C.2        1 UNL1     0.0115
     6 C         10.909603   3.361292   -3.588015 C.3        1 UNL1     -0.0348
     7 C         9.876749   5.469817   -3.327443 C.2        1 UNL1     0.2441
     8 O         10.70076   6.291332   -2.94976 O.2        1 UNL1     -0.2702
     9 N         9.125986   5.677288   -4.497683 N.am        1 UNL1     -0.2772
     10 C         7.843393   6.063755   -4.183168 C.2        1 UNL1     0.1049
     11 C         6.997791   5.092161   -3.891303 C.2        1 UNL1     0.0801
     12 C         6.545554   7.66968   -2.771094 C.ar        1 UNL1     0.0753
     13 C         5.786759   6.541516   -2.323786 C.ar        1 UNL1     0.0305
     14 C         5.903468   5.236122   -2.969832 C.2        1 UNL1     0.0924
     15 N         7.12041   3.763263   -4.051065 N.pl3        1 UNL1     -0.3170
     16 C         5.850725   3.16388   -3.736593 C.3        1 UNL1     0.1275
     17 N         5.214718   4.118625   -2.755939 N.2        1 UNL1     -0.2557
     18 C         4.997301   3.223492   -4.999849 C.3        1 UNL1     0.0016
     19 C         5.751707   2.539965   -6.12912 C.3        1 UNL1     0.0026
     20 N         6.022097   1.161699   -5.744024 N.3        1 UNL1     -0.3018
     21 C         6.786023   1.000769   -4.505119 C.3        1 UNL1     0.0026
     22 C         6.007749   1.690727   -3.383449 C.3        1 UNL1     0.0016
     23 C         6.466144   0.3427   -6.854297 C.3        1 UNL1     0.0012
     24 C         5.310267   0.093619   -7.835961 C.3        1 UNL1     -0.0339
     25 C         5.34539   1.086315   -9.009579 C.3        1 UNL1     -0.0615
     26 C         5.339225   -1.345652   -8.32015 C.3        1 UNL1     -0.0615
     27 C         6.341072   8.937113   -2.230797 C.ar        1 UNL1     0.1347
     28 C         5.382435   9.206165   -1.270237 C.ar        1 UNL1     0.0342
     29 C         4.681142   8.071464   -0.810011 C.ar        1 UNL1     0.1435
     30 C         4.900424   6.789683   -1.316146 C.ar        1 UNL1     0.0774
     31 O         3.640533   8.18458   0.044005 O.3        1 UNL1     -0.4436
     32 C         2.918856   6.951788   -0.098396 C.3        1 UNL1     0.3143
     33 C         3.931963   5.958982   -0.631466 C.2        1 UNL1     0.2504
     34 C         4.935725   10.572041   -0.828727 C.3        1 UNL1     -0.0327
     35 O         2.558845   6.514463   1.217807 O.2        1 UNL1     -0.4528
     36 C         -0.684281   4.582287   0.821672 C.3        1 UNL1     0.0854
     37 C         -0.989932   3.322099   -0.076117 C.3        1 UNL1     0.0236
     38 C         -1.590059   2.060662   0.711519 C.3        1 UNL1     0.1131
     39 C         -0.863674   1.529171   2.012346 C.3        1 UNL1     0.0200
     40 C         0.797545   1.383694   2.052682 C.3        1 UNL1     0.0661
     41 C         1.756416   0.615449   0.883077 C.3        1 UNL1     0.0091
     42 C         3.463724   0.978353   0.318451 C.3        1 UNL1     0.0661
     43 C         7.49509   7.462539   -3.892581 C.2        1 UNL1     0.2131
     44 O         7.894595   8.360966   -4.610887 O.2        1 UNL1     -0.2851
     45 O         7.153073   9.972471   -2.689191 O.3        1 UNL1     -0.5056
     46 O         3.948075   4.755389   -0.501243 O.2        1 UNL1     -0.2836
     47 C         5.564347   1.31873   1.927593 C.3        1 UNL1     -0.0566
     48 O         3.912398   -0.432765   0.39939 O.3        1 UNL1     -0.3909
     49 C         0.921667   0.383377   -0.356613 C.3        1 UNL1     -0.0577
     50 O         1.397862   2.60141   2.44576 O.3        1 UNL1     -0.3910
     51 O         -0.807714   4.391978   2.213067 O.3        1 UNL1     -0.3753
     52 C         0.053997   3.162202   -1.229197 C.3        1 UNL1     -0.0564
     53 O         -2.193026   1.022053   -0.188509 O.3        1 UNL1     -0.4608
     54 C         -2.427211   -0.284863   0.15069 C.2        1 UNL1     0.3042
     55 O         -1.858266   -1.283767   -0.287865 O.2        1 UNL1     -0.2512
     56 C         -3.466724   -0.451043   1.222376 C.3        1 UNL1     0.0332
     57 C         -1.58415   2.19756   3.274227 C.3        1 UNL1     -0.0567
     58 C         1.843145   7.197311   -1.181951 C.3        1 UNL1     0.0210
     59 C         -1.120627   5.570635   2.953823 C.3        1 UNL1     0.0372
     60 C         0.644576   5.211542   0.59072 C.2        1 UNL1     -0.0208
     61 C         1.557895   5.646431   1.459895 C.2        1 UNL1     0.0882
     62 H         4.691369   2.732949   0.577699 H        1 UNL1     0.0365
     63 H         6.337306   3.60916   -0.25499 H        1 UNL1     0.0576
     64 H         8.342738   1.490885   -1.248937 H        1 UNL1     0.0615
     65 H         8.275213   4.608353   -1.435197 H        1 UNL1     0.0622
     66 H         -1.429113   5.328917   0.512131 H        1 UNL1     0.0645
     67 H         -1.855781   3.631694   -0.686867 H        1 UNL1     0.0362
     68 H         -2.536986   2.497334   1.063894 H        1 UNL1     0.0741
     69 H         -1.195055   0.517969   2.207452 H        1 UNL1     0.0359
     70 H         0.909766   0.722977   2.933545 H        1 UNL1     0.0600
     71 H         1.800249   -0.405904   1.309544 H        1 UNL1     0.0348
     72 H         3.358278   1.466118   1.298391 H        1 UNL1     0.0602
     73 H         0.761975   5.409257   -0.4458 H        1 UNL1     0.0628
     74 H         1.540862   5.435291   2.529646 H        1 UNL1     0.1022
     75 H         10.95421   2.255948   -3.435509 H        1 UNL1     0.0279
     76 H         10.795459   3.444554   -4.666489 H        1 UNL1     0.0279
     77 H         11.914817   3.665901   -3.261733 H        1 UNL1     0.0279
     78 H         9.06378   4.807569   -5.022846 H        1 UNL1     0.1553
     79 H         7.78541   3.335578   -4.668959 H        1 UNL1     0.1484
     80 H         4.036135   2.732426   -4.805478 H        1 UNL1     0.0317
     81 H         4.770515   4.260354   -5.270287 H        1 UNL1     0.0317
     82 H         6.682227   3.071422   -6.37731 H        1 UNL1     0.0428
     83 H         5.126131   2.595472   -7.020537 H        1 UNL1     0.0428
     84 H         6.906539   -0.042313   -4.196466 H        1 UNL1     0.0428
     85 H         7.816049   1.368897   -4.60926 H        1 UNL1     0.0428
     86 H         6.524613   1.439988   -2.475721 H        1 UNL1     0.0317
     87 H         5.028387   1.212988   -3.258107 H        1 UNL1     0.0317
     88 H         7.261932   0.884768   -7.381724 H        1 UNL1     0.0429
     89 H         6.89895   -0.603206   -6.503991 H        1 UNL1     0.0429
     90 H         4.357478   0.212415   -7.306533 H        1 UNL1     0.0308
     91 H         6.295935   1.031437   -9.548611 H        1 UNL1     0.0233
     92 H         4.526488   0.890532   -9.705767 H        1 UNL1     0.0233
     93 H         5.225532   2.125804   -8.68105 H        1 UNL1     0.0233
     94 H         4.644348   -1.476785   -9.156682 H        1 UNL1     0.0233
     95 H         6.342578   -1.60135   -8.672093 H        1 UNL1     0.0233
     96 H         5.056704   -2.040236   -7.524096 H        1 UNL1     0.0233
     97 H         4.142738   10.521899   -0.088532 H        1 UNL1     0.0280
     98 H         5.74867   11.141919   -0.360095 H        1 UNL1     0.0280
     99 H         4.561608   11.136937   -1.698224 H        1 UNL1     0.0280
     100 H         6.685853   10.7232   -3.01127 H        1 UNL1     0.2922
     101 H         4.701794   0.884827   2.432952 H        1 UNL1     0.0236
     102 H         6.015361   2.123845   2.506696 H        1 UNL1     0.0236
     103 H         6.320636   0.516099   1.925786 H        1 UNL1     0.0236
     104 H         4.332352   -0.559114   1.272686 H        1 UNL1     0.2098
     105 H         0.708703   1.282447   -0.92944 H        1 UNL1     0.0234
     106 H         1.290784   -0.404341   -1.013256 H        1 UNL1     0.0234
     107 H         0.0   -0.0   0.0 H        1 UNL1     0.0234
     108 H         1.19955   3.25977   1.752217 H        1 UNL1     0.2098
     109 H         1.079018   3.048614   -0.849537 H        1 UNL1     0.0234
     110 H         -0.178725   2.335385   -1.908872 H        1 UNL1     0.0234
     111 H         0.074834   4.0453   -1.881616 H        1 UNL1     0.0234
     112 H         -3.599066   -1.512906   1.451022 H        1 UNL1     0.0342
     113 H         -3.22311   0.114592   2.120459 H        1 UNL1     0.0342
     114 H         -4.421526   -0.068078   0.836558 H        1 UNL1     0.0342
     115 H         -2.653743   1.949212   3.312731 H        1 UNL1     0.0234
     116 H         -1.147222   1.917406   4.234778 H        1 UNL1     0.0234
     117 H         -1.622828   3.299435   3.226095 H        1 UNL1     0.0234
     118 H         0.942241   7.683992   -0.769008 H        1 UNL1     0.0309
     119 H         2.212082   7.78568   -2.028066 H        1 UNL1     0.0309
     120 H         1.454421   6.265516   -1.607107 H        1 UNL1     0.0309
     121 H         -0.29968   6.273903   2.816651 H        1 UNL1     0.0524
     122 H         -2.04062   6.059785   2.592738 H        1 UNL1     0.0524
     123 H         -1.238086   5.332432   4.007178 H        1 UNL1     0.0524
@<TRIPOS>BOND
     1     1     2    1
     2     1    42    1
     3     2     3    2
     4     3     4    1
     5     4     5    2
     6     5     7    1
     7     6    75    1
     8     6    76    1
     9     6    77    1
    10     7     9   am
    11     9    10    1
    12    10    11    2
    13    10    43    1
    14    11    14    1
    15    11    15    1
    16    12    13   ar
    17    12    27   ar
    18    12    43    1
    19    13    14    1
    20    13    30   ar
    21    14    17    2
    22    15    16    1
    23    16    17    1
    24    16    18    1
    25    16    22    1
    26    18    19    1
    27    19    20    1
    28    20    21    1
    29    21    22    1
    30    23    24    1
    31    23    88    1
    32    23    89    1
    33    24    25    1
    34    24    26    1
    35    24    90    1
    36    25    91    1
    37    25    92    1
    38    25    93    1
    39    26    94    1
    40    26    95    1
    41    26    96    1
    42    27    28   ar
    43    28    29   ar
    44    29    30   ar
    45    29    31    1
    46    30    33    1
    47    31    32    1
    48    32    33    1
    49    32    35    1
    50    34    97    1
    51    34    98    1
    52    34    99    1
    53    35    61    1
    54    36    37    1
    55    36    60    1
    56    37    38    1
    57    38    39    1
    58    39    40    1
    59    40    41    1
    60    41    42    1
    61    45   100    1
    62    47   101    1
    63    47   102    1
    64    47   103    1
    65    48   104    1
    66    49   105    1
    67    49   106    1
    68    49   107    1
    69    50   108    1
    70    51    59    1
    71    52   109    1
    72    52   110    1
    73    52   111    1
    74    53    54    1
    75    54    55    2
    76    54    56    1
    77    56   112    1
    78    56   113    1
    79    56   114    1
    80    57   115    1
    81    57   116    1
    82    57   117    1
    83    58   118    1
    84    58   119    1
    85    58   120    1
    86    59   121    1
    87    59   122    1
    88    59   123    1
    89    60    61    2
    90     1    47    1
    91     1    62    1
    92     2    63    1
    93     3    64    1
    94     4    65    1
    95     5     6    1
    96     7     8    2
    97     9    78    1
    98    15    79    1
    99    18    80    1
   100    18    81    1
   101    19    82    1
   102    19    83    1
   103    20    23    1
   104    21    84    1
   105    21    85    1
   106    22    86    1
   107    22    87    1
   108    27    45    1
   109    28    34    1
   110    32    58    1
   111    33    46    2
   112    36    51    1
   113    36    66    1
   114    37    52    1
   115    37    67    1
   116    38    53    1
   117    38    68    1
   118    42    48    1
   119    42    72    1
   120    43    44    2
   121    60    73    1
   122    61    74    1
   123    39    69    1
   124    39    57    1
   125    40    70    1
   126    40    50    1
   127    41    71    1
   128    41    49    1
