@<TRIPOS>MOLECULE
*****
 123 128 0 0 0
SMALL
GASTEIGER

@<TRIPOS>ATOM
     1 C         -2.848914   1.13964   2.758037 C.3        1 UNL1     0.0009
     2 C         -4.570915   1.740765   2.425775 C.2        1 UNL1     -0.0787
     3 C         -5.508496   2.829114   2.245542 C.2        1 UNL1     -0.0649
     4 C         -7.137682   2.73518   1.794669 C.2        1 UNL1     -0.0542
     5 C         -8.235868   3.448806   1.25448 C.2        1 UNL1     0.0115
     6 C         -8.74101   4.8618   0.852484 C.3        1 UNL1     -0.0348
     7 C         -9.482642   2.626707   0.66567 C.2        1 UNL1     0.2441
     8 O         -10.534497   2.486606   1.274356 O.2        1 UNL1     -0.2702
     9 N         -9.38222   2.301151   -0.698178 N.am        1 UNL1     -0.2772
     10 C         -8.725488   1.102712   -0.858706 C.2        1 UNL1     0.1049
     11 C         -7.405957   1.155211   -0.841326 C.2        1 UNL1     0.0801
     12 C         -8.680723   -1.260044   -0.038514 C.ar        1 UNL1     0.0753
     13 C         -7.274546   -1.081755   0.160199 C.ar        1 UNL1     0.0305
     14 C         -6.570786   0.088839   -0.358919 C.2        1 UNL1     0.0924
     15 N         -6.582798   2.216027   -0.901366 N.pl3        1 UNL1     -0.3170
     16 C         -5.236983   1.721615   -1.022171 C.3        1 UNL1     0.1275
     17 N         -5.270424   0.368074   -0.355438 N.2        1 UNL1     -0.2557
     18 C         -4.983391   1.457931   -2.503341 C.3        1 UNL1     0.0016
     19 C         -5.254034   2.737607   -3.278435 C.3        1 UNL1     0.0026
     20 N         -4.375567   3.784287   -2.774662 N.3        1 UNL1     -0.3018
     21 C         -4.5027   4.067253   -1.343531 C.3        1 UNL1     0.0026
     22 C         -4.22225   2.769415   -0.584018 C.3        1 UNL1     0.0016
     23 C         -4.337759   4.95082   -3.633972 C.3        1 UNL1     0.0012
     24 C         -5.505135   5.896402   -3.310146 C.3        1 UNL1     -0.0339
     25 C         -6.017303   6.610207   -4.571979 C.3        1 UNL1     -0.0615
     26 C         -6.615682   5.132176   -2.610556 C.3        1 UNL1     -0.0615
     27 C         -9.321887   -2.433124   0.352525 C.ar        1 UNL1     0.1347
     28 C         -8.657783   -3.509193   0.913856 C.ar        1 UNL1     0.0342
     29 C         -7.282755   -3.292023   1.144725 C.ar        1 UNL1     0.1435
     30 C         -6.633875   -2.108259   0.791345 C.ar        1 UNL1     0.0774
     31 O         -6.476627   -4.283324   1.583457 O.3        1 UNL1     -0.4436
     32 C         -5.150753   -3.848926   1.245475 C.3        1 UNL1     0.3143
     33 C         -5.245349   -2.34098   1.129877 C.2        1 UNL1     0.2504
     34 C         -9.227656   -4.884202   1.125267 C.3        1 UNL1     -0.0327
     35 O         -4.310596   -4.129101   2.371925 O.2        1 UNL1     -0.4528
     36 C         -0.852317   -4.787699   0.952544 C.3        1 UNL1     0.0854
     37 C         0.047797   -3.858697   0.050172 C.3        1 UNL1     0.0236
     38 C         1.516457   -3.573422   0.62758 C.3        1 UNL1     0.1131
     39 C         1.690399   -3.07023   2.117147 C.3        1 UNL1     0.0200
     40 C         0.686749   -1.888427   2.732344 C.3        1 UNL1     0.0661
     41 C         0.329922   -0.404023   1.992866 C.3        1 UNL1     0.0091
     42 C         -1.197277   0.611365   2.038188 C.3        1 UNL1     0.0661
     43 C         -9.417857   -0.190527   -0.756167 C.2        1 UNL1     0.2131
     44 O         -10.479657   -0.369889   -1.324626 O.2        1 UNL1     -0.2851
     45 O         -10.700538   -2.508057   0.165063 O.3        1 UNL1     -0.5056
     46 O         -4.375712   -1.516115   1.300711 O.2        1 UNL1     -0.2836
     47 C         -2.495518   1.318528   4.259068 C.3        1 UNL1     -0.0566
     48 O         -0.482032   1.87966   2.319202 O.3        1 UNL1     -0.3909
     49 C         0.782594   -0.455973   0.550686 C.3        1 UNL1     -0.0577
     50 O         -0.491943   -2.458952   3.264237 O.3        1 UNL1     -0.3910
     51 O         -0.329345   -5.107064   2.222164 O.3        1 UNL1     -0.3753
     52 C         -0.793092   -2.752117   -0.666302 C.3        1 UNL1     -0.0564
     53 O         2.458891   -2.995228   -0.387229 O.3        1 UNL1     -0.4608
     54 C         3.597814   -2.288275   -0.102621 C.2        1 UNL1     0.3042
     55 O         3.754575   -1.069346   -0.161565 O.2        1 UNL1     -0.2512
     56 C         4.731864   -3.14521   0.383494 C.3        1 UNL1     0.0332
     57 C         1.978079   -4.35248   3.028876 C.3        1 UNL1     -0.0567
     58 C         -4.840041   -4.437752   -0.15033 C.3        1 UNL1     0.0210
     59 C         0.118827   -6.454217   2.36424 C.3        1 UNL1     0.0372
     60 C         -2.240674   -4.297905   1.171011 C.2        1 UNL1     -0.0208
     61 C         -2.970976   -4.238265   2.285393 C.2        1 UNL1     0.0882
     62 H         -3.206568   0.109504   2.641357 H        1 UNL1     0.0365
     63 H         -5.114701   0.794266   2.395673 H        1 UNL1     0.0576
     64 H         -5.180196   3.870785   2.229799 H        1 UNL1     0.0615
     65 H         -7.382203   1.676901   1.920124 H        1 UNL1     0.0622
     66 H         -0.948567   -5.720269   0.378875 H        1 UNL1     0.0645
     67 H         0.276018   -4.481659   -0.832094 H        1 UNL1     0.0362
     68 H         1.920571   -4.597183   0.616378 H        1 UNL1     0.0741
     69 H         2.67144   -2.62648   2.222277 H        1 UNL1     0.0359
     70 H         1.272373   -1.584555   3.621032 H        1 UNL1     0.0600
     71 H         1.116981   0.231114   2.444636 H        1 UNL1     0.0348
     72 H         -1.256616   -0.064402   2.903713 H        1 UNL1     0.0602
     73 H         -2.686946   -4.082768   0.231966 H        1 UNL1     0.0628
     74 H         -2.575302   -4.386978   3.290662 H        1 UNL1     0.1022
     75 H         -9.627283   5.150868   1.467296 H        1 UNL1     0.0279
     76 H         -8.056263   5.689079   1.025113 H        1 UNL1     0.0279
     77 H         -9.163076   4.889616   -0.162793 H        1 UNL1     0.0279
     78 H         -8.840151   3.014599   -1.181118 H        1 UNL1     0.1553
     79 H         -6.862244   3.119581   -1.236678 H        1 UNL1     0.1484
     80 H         -3.947765   1.12169   -2.634441 H        1 UNL1     0.0317
     81 H         -5.624333   0.650024   -2.872301 H        1 UNL1     0.0317
     82 H         -6.309482   3.039658   -3.209827 H        1 UNL1     0.0428
     83 H         -5.068916   2.526731   -4.332149 H        1 UNL1     0.0428
     84 H         -3.77761   4.799588   -0.975098 H        1 UNL1     0.0428
     85 H         -5.477747   4.511245   -1.099664 H        1 UNL1     0.0428
     86 H         -4.19261   3.042336   0.45455 H        1 UNL1     0.0317
     87 H         -3.198989   2.43032   -0.786621 H        1 UNL1     0.0317
     88 H         -3.395414   5.48222   -3.44717 H        1 UNL1     0.0429
     89 H         -4.341503   4.66561   -4.693885 H        1 UNL1     0.0429
     90 H         -5.165645   6.653997   -2.593899 H        1 UNL1     0.0308
     91 H         -6.141149   5.90923   -5.402879 H        1 UNL1     0.0233
     92 H         -6.971075   7.105466   -4.375388 H        1 UNL1     0.0233
     93 H         -5.331218   7.393555   -4.916201 H        1 UNL1     0.0233
     94 H         -7.567589   5.662464   -2.72237 H        1 UNL1     0.0233
     95 H         -6.727204   4.141056   -3.059116 H        1 UNL1     0.0233
     96 H         -6.408546   5.015264   -1.543131 H        1 UNL1     0.0233
     97 H         -8.652694   -5.647325   0.609231 H        1 UNL1     0.0280
     98 H         -9.228622   -5.17343   2.184324 H        1 UNL1     0.0280
     99 H         -10.262687   -4.916816   0.747457 H        1 UNL1     0.0280
     100 H         -11.164863   -1.710934   0.35113 H        1 UNL1     0.2922
     101 H         -2.533445   0.353142   4.763298 H        1 UNL1     0.0236
     102 H         -3.111871   2.065293   4.758501 H        1 UNL1     0.0236
     103 H         -1.459416   1.668275   4.401759 H        1 UNL1     0.0236
     104 H         0.249064   1.675844   2.934774 H        1 UNL1     0.2098
     105 H         1.697463   0.094794   0.347018 H        1 UNL1     0.0234
     106 H         0.843463   -1.458902   0.128364 H        1 UNL1     0.0234
     107 H         0.0   0.0   -0.0 H        1 UNL1     0.0234
     108 H         -1.131397   -1.732827   3.396935 H        1 UNL1     0.2098
     109 H         -1.1806   -3.088097   -1.638242 H        1 UNL1     0.0234
     110 H         -1.618615   -2.374449   -0.053422 H        1 UNL1     0.0234
     111 H         -0.18972   -1.859636   -0.879298 H        1 UNL1     0.0234
     112 H         5.599955   -2.519355   0.611683 H        1 UNL1     0.0342
     113 H         4.448847   -3.749518   1.24405 H        1 UNL1     0.0342
     114 H         5.015013   -3.83144   -0.426493 H        1 UNL1     0.0342
     115 H         2.647156   -4.115473   3.867537 H        1 UNL1     0.0234
     116 H         1.079376   -4.811669   3.445443 H        1 UNL1     0.0234
     117 H         2.554359   -5.139233   2.512289 H        1 UNL1     0.0234
     118 H         -4.072128   -5.229728   -0.104637 H        1 UNL1     0.0309
     119 H         -5.727164   -4.827989   -0.659182 H        1 UNL1     0.0309
     120 H         -4.400988   -3.699154   -0.829897 H        1 UNL1     0.0309
     121 H         0.056827   -6.712585   3.421008 H        1 UNL1     0.0524
     122 H         -0.515158   -7.166638   1.810565 H        1 UNL1     0.0524
     123 H         1.143095   -6.548395   2.014811 H        1 UNL1     0.0524
@<TRIPOS>BOND
     1     1     2    1
     2     1    42    1
     3     2     3    2
     4     3     4    1
     5     4     5    2
     6     5     7    1
     7     6    75    1
     8     6    76    1
     9     6    77    1
    10     7     9   am
    11     9    10    1
    12    10    11    2
    13    10    43    1
    14    11    14    1
    15    11    15    1
    16    12    13   ar
    17    12    27   ar
    18    12    43    1
    19    13    14    1
    20    13    30   ar
    21    14    17    2
    22    15    16    1
    23    16    17    1
    24    16    18    1
    25    16    22    1
    26    18    19    1
    27    19    20    1
    28    20    21    1
    29    21    22    1
    30    23    24    1
    31    23    88    1
    32    23    89    1
    33    24    25    1
    34    24    26    1
    35    24    90    1
    36    25    91    1
    37    25    92    1
    38    25    93    1
    39    26    94    1
    40    26    95    1
    41    26    96    1
    42    27    28   ar
    43    28    29   ar
    44    29    30   ar
    45    29    31    1
    46    30    33    1
    47    31    32    1
    48    32    33    1
    49    32    35    1
    50    34    97    1
    51    34    98    1
    52    34    99    1
    53    35    61    1
    54    36    37    1
    55    36    60    1
    56    37    38    1
    57    38    39    1
    58    39    40    1
    59    40    41    1
    60    41    42    1
    61    45   100    1
    62    47   101    1
    63    47   102    1
    64    47   103    1
    65    48   104    1
    66    49   105    1
    67    49   106    1
    68    49   107    1
    69    50   108    1
    70    51    59    1
    71    52   109    1
    72    52   110    1
    73    52   111    1
    74    53    54    1
    75    54    55    2
    76    54    56    1
    77    56   112    1
    78    56   113    1
    79    56   114    1
    80    57   115    1
    81    57   116    1
    82    57   117    1
    83    58   118    1
    84    58   119    1
    85    58   120    1
    86    59   121    1
    87    59   122    1
    88    59   123    1
    89    60    61    2
    90     1    47    1
    91     1    62    1
    92     2    63    1
    93     3    64    1
    94     4    65    1
    95     5     6    1
    96     7     8    2
    97     9    78    1
    98    15    79    1
    99    18    80    1
   100    18    81    1
   101    19    82    1
   102    19    83    1
   103    20    23    1
   104    21    84    1
   105    21    85    1
   106    22    86    1
   107    22    87    1
   108    27    45    1
   109    28    34    1
   110    32    58    1
   111    33    46    2
   112    36    51    1
   113    36    66    1
   114    37    52    1
   115    37    67    1
   116    38    53    1
   117    38    68    1
   118    42    48    1
   119    42    72    1
   120    43    44    2
   121    60    73    1
   122    61    74    1
   123    39    69    1
   124    39    57    1
   125    40    70    1
   126    40    50    1
   127    41    71    1
   128    41    49    1
