@<TRIPOS>MOLECULE
*****
 123 128 0 0 0
SMALL
GASTEIGER

@<TRIPOS>ATOM
     1 C         4.969769   2.246401   0.516559 C.3        1 UNL1     0.0009
     2 C         6.35342   3.1257   -0.349108 C.2        1 UNL1     -0.0787
     3 C         7.664161   3.106432   -0.963628 C.2        1 UNL1     -0.0649
     4 C         8.446009   4.362329   -1.78691 C.2        1 UNL1     -0.0542
     5 C         9.468995   4.683662   -2.712827 C.2        1 UNL1     0.0115
     6 C         10.686365   4.11067   -3.489367 C.3        1 UNL1     -0.0348
     7 C         9.442934   6.118452   -3.432331 C.2        1 UNL1     0.2441
     8 O         10.166951   7.045124   -3.095279 O.2        1 UNL1     -0.2702
     9 N         8.723126   6.159171   -4.639133 N.am        1 UNL1     -0.2772
     10 C         7.39733   6.437733   -4.398317 C.2        1 UNL1     0.1049
     11 C         6.639598   5.411302   -4.056993 C.2        1 UNL1     0.0801
     12 C         5.893209   8.008518   -3.162361 C.ar        1 UNL1     0.0753
     13 C         5.23084   6.847402   -2.650808 C.ar        1 UNL1     0.0305
     14 C         5.500313   5.514714   -3.185951 C.2        1 UNL1     0.0924
     15 N         6.897706   4.093142   -4.105599 N.pl3        1 UNL1     -0.3170
     16 C         5.681008   3.395049   -3.785335 C.3        1 UNL1     0.1275
     17 N         4.915935   4.35334   -2.905526 N.2        1 UNL1     -0.2557
     18 C         4.877287   3.271653   -5.076268 C.3        1 UNL1     0.0016
     19 C         5.739587   2.582921   -6.122058 C.3        1 UNL1     0.0026
     20 N         6.12757   1.272373   -5.619104 N.3        1 UNL1     -0.3018
     21 C         6.853166   1.284406   -4.347201 C.3        1 UNL1     0.0026
     22 C         5.966809   1.976536   -3.310272 C.3        1 UNL1     0.0016
     23 C         6.693711   0.419521   -6.64515 C.3        1 UNL1     0.0012
     24 C         7.794803   1.163628   -7.416937 C.3        1 UNL1     -0.0339
     25 C         9.181909   0.561798   -7.138018 C.3        1 UNL1     -0.0615
     26 C         7.476506   1.169879   -8.902005 C.3        1 UNL1     -0.0615
     27 C         5.544408   9.286626   -2.732368 C.ar        1 UNL1     0.1347
     28 C         4.526267   9.530758   -1.828024 C.ar        1 UNL1     0.0342
     29 C         3.921198   8.369926   -1.301215 C.ar        1 UNL1     0.1435
     30 C         4.284744   7.081688   -1.695545 C.ar        1 UNL1     0.0774
     31 O         2.84105   8.442973   -0.493162 O.3        1 UNL1     -0.4436
     32 C         2.2495   7.136627   -0.559513 C.3        1 UNL1     0.3143
     33 C         3.3753   6.212763   -0.978155 C.2        1 UNL1     0.2504
     34 C         3.930949   10.874611   -1.512185 C.3        1 UNL1     -0.0327
     35 O         1.881322   6.767446   0.775179 O.2        1 UNL1     -0.4528
     36 C         -1.139099   4.494486   0.430508 C.3        1 UNL1     0.0854
     37 C         -1.283924   3.144912   -0.372734 C.3        1 UNL1     0.0236
     38 C         -1.789172   1.893607   0.493697 C.3        1 UNL1     0.1131
     39 C         -1.067214   1.539017   1.855796 C.3        1 UNL1     0.0200
     40 C         0.597303   1.564747   1.961431 C.3        1 UNL1     0.0661
     41 C         1.672818   0.809435   0.888873 C.3        1 UNL1     0.0091
     42 C         3.357832   1.297762   0.352529 C.3        1 UNL1     0.0661
     43 C         6.90272   7.81256   -4.23229 C.2        1 UNL1     0.2131
     44 O         7.241126   8.688913   -5.007031 O.2        1 UNL1     -0.2851
     45 O         6.269192   10.360178   -3.2458 O.3        1 UNL1     -0.5056
     46 O         3.503612   5.030412   -0.751361 O.2        1 UNL1     -0.2836
     47 C         5.348829   1.969778   1.996347 C.3        1 UNL1     -0.0566
     48 O         3.938532   -0.050754   0.560873 O.3        1 UNL1     -0.3909
     49 C         0.915201   0.400373   -0.354582 C.3        1 UNL1     -0.0577
     50 O         1.059573   2.863142   2.274801 O.3        1 UNL1     -0.3910
     51 O         -1.299161   4.399876   1.827956 O.3        1 UNL1     -0.3753
     52 C         -0.183892   3.002886   -1.474871 C.3        1 UNL1     -0.0564
     53 O         -2.251197   0.733785   -0.339173 O.3        1 UNL1     -0.4608
     54 C         -2.36716   -0.560762   0.095142 C.2        1 UNL1     0.3042
     55 O         -1.597502   -1.494724   -0.126626 O.2        1 UNL1     -0.2512
     56 C         -3.556784   -0.79309   0.982572 C.3        1 UNL1     0.0332
     57 C         -1.899623   2.226301   3.036013 C.3        1 UNL1     -0.0567
     58 C         1.199361   7.189076   -1.693527 C.3        1 UNL1     0.0210
     59 C         -1.754937   5.594451   2.461299 C.3        1 UNL1     0.0372
     60 C         0.130167   5.234554   0.192972 C.2        1 UNL1     -0.0208
     61 C         0.960997   5.824322   1.053576 C.2        1 UNL1     0.0882
     62 H         4.396878   3.181528   0.509818 H        1 UNL1     0.0365
     63 H         5.981514   4.152347   -0.336743 H        1 UNL1     0.0576
     64 H         8.222502   2.176459   -1.092136 H        1 UNL1     0.0615
     65 H         7.858442   5.247885   -1.529931 H        1 UNL1     0.0622
     66 H         -1.940234   5.136566   0.038127 H        1 UNL1     0.0645
     67 H         -2.150626   3.318226   -1.034059 H        1 UNL1     0.0362
     68 H         -2.7876   2.258605   0.779071 H        1 UNL1     0.0741
     69 H         -1.305846   0.517563   2.120549 H        1 UNL1     0.0359
     70 H         0.738021   0.988077   2.895621 H        1 UNL1     0.0600
     71 H         1.798999   -0.16666   1.397081 H        1 UNL1     0.0348
     72 H         3.16598   1.846082   1.28626 H        1 UNL1     0.0602
     73 H         0.269248   5.363087   -0.851722 H        1 UNL1     0.0628
     74 H         0.921697   5.695104   2.135702 H        1 UNL1     0.1022
     75 H         10.78478   3.012971   -3.309353 H        1 UNL1     0.0279
     76 H         10.639623   4.166825   -4.5746 H        1 UNL1     0.0279
     77 H         11.648259   4.480484   -3.105053 H        1 UNL1     0.0279
     78 H         8.767288   5.249945   -5.094583 H        1 UNL1     0.1553
     79 H         7.625573   3.688386   -4.665344 H        1 UNL1     0.1484
     80 H         3.961633   2.702815   -4.874356 H        1 UNL1     0.0317
     81 H         4.561393   4.256696   -5.436199 H        1 UNL1     0.0317
     82 H         6.622985   3.184622   -6.38182 H        1 UNL1     0.0428
     83 H         5.147902   2.506832   -7.03484 H        1 UNL1     0.0428
     84 H         7.062457   0.285438   -3.952141 H        1 UNL1     0.0428
     85 H         7.845674   1.745122   -4.447133 H        1 UNL1     0.0428
     86 H         6.468797   1.849282   -2.369102 H        1 UNL1     0.0317
     87 H         5.034532   1.413803   -3.178789 H        1 UNL1     0.0317
     88 H         7.140862   -0.454725   -6.154187 H        1 UNL1     0.0429
     89 H         5.91778   0.04472   -7.325024 H        1 UNL1     0.0429
     90 H         7.801977   2.215554   -7.107721 H        1 UNL1     0.0308
     91 H         9.16153   -0.530336   -7.200709 H        1 UNL1     0.0233
     92 H         9.919811   0.947909   -7.845144 H        1 UNL1     0.0233
     93 H         9.554154   0.816162   -6.138235 H        1 UNL1     0.0233
     94 H         8.390339   1.333137   -9.483462 H        1 UNL1     0.0233
     95 H         7.056436   0.204583   -9.198159 H        1 UNL1     0.0233
     96 H         6.761423   1.958142   -9.153534 H        1 UNL1     0.0233
     97 H         3.280751   10.83816   -0.643194 H        1 UNL1     0.0280
     98 H         4.699521   11.623759   -1.28125 H        1 UNL1     0.0280
     99 H         3.33866   11.227247   -2.372381 H        1 UNL1     0.0280
     100 H         6.137274   10.518221   -4.164082 H        1 UNL1     0.2922
     101 H         4.446001   1.790578   2.579824 H        1 UNL1     0.0236
     102 H         5.969648   2.751325   2.4331 H        1 UNL1     0.0236
     103 H         5.941122   1.046052   2.106407 H        1 UNL1     0.0236
     104 H         4.254847   -0.096218   1.484371 H        1 UNL1     0.2098
     105 H         0.680682   1.221002   -1.027917 H        1 UNL1     0.0234
     106 H         1.36034   -0.426629   -0.907615 H        1 UNL1     0.0234
     107 H         0.0   -0.0   0.0 H        1 UNL1     0.0234
     108 H         2.020478   2.878758   2.101061 H        1 UNL1     0.2098
     109 H         -0.161559   3.866569   -2.154036 H        1 UNL1     0.0234
     110 H         0.817375   2.83361   -1.064317 H        1 UNL1     0.0234
     111 H         -0.361349   2.127207   -2.113339 H        1 UNL1     0.0234
     112 H         -4.058916   -1.722176   0.696203 H        1 UNL1     0.0342
     113 H         -3.285061   -0.8048   2.037026 H        1 UNL1     0.0342
     114 H         -4.264873   0.033128   0.830454 H        1 UNL1     0.0342
     115 H         -1.889272   1.618078   3.95097 H        1 UNL1     0.0234
     116 H         -1.550026   3.225796   3.30217 H        1 UNL1     0.0234
     117 H         -2.982655   2.2872   2.832855 H        1 UNL1     0.0234
     118 H         0.167451   7.218295   -1.301975 H        1 UNL1     0.0309
     119 H         1.346994   8.031113   -2.37718 H        1 UNL1     0.0309
     120 H         1.207782   6.287822   -2.316244 H        1 UNL1     0.0309
     121 H         -1.411175   5.571324   3.495054 H        1 UNL1     0.0524
     122 H         -1.337922   6.501553   1.993001 H        1 UNL1     0.0524
     123 H         -2.839465   5.64723   2.428023 H        1 UNL1     0.0524
@<TRIPOS>BOND
     1     1     2    1
     2     1    42    1
     3     2     3    2
     4     3     4    1
     5     4     5    2
     6     5     7    1
     7     6    75    1
     8     6    76    1
     9     6    77    1
    10     7     9   am
    11     9    10    1
    12    10    11    2
    13    10    43    1
    14    11    14    1
    15    11    15    1
    16    12    13   ar
    17    12    27   ar
    18    12    43    1
    19    13    14    1
    20    13    30   ar
    21    14    17    2
    22    15    16    1
    23    16    17    1
    24    16    18    1
    25    16    22    1
    26    18    19    1
    27    19    20    1
    28    20    21    1
    29    21    22    1
    30    23    24    1
    31    23    88    1
    32    23    89    1
    33    24    25    1
    34    24    26    1
    35    24    90    1
    36    25    91    1
    37    25    92    1
    38    25    93    1
    39    26    94    1
    40    26    95    1
    41    26    96    1
    42    27    28   ar
    43    28    29   ar
    44    29    30   ar
    45    29    31    1
    46    30    33    1
    47    31    32    1
    48    32    33    1
    49    32    35    1
    50    34    97    1
    51    34    98    1
    52    34    99    1
    53    35    61    1
    54    36    37    1
    55    36    60    1
    56    37    38    1
    57    38    39    1
    58    39    40    1
    59    40    41    1
    60    41    42    1
    61    45   100    1
    62    47   101    1
    63    47   102    1
    64    47   103    1
    65    48   104    1
    66    49   105    1
    67    49   106    1
    68    49   107    1
    69    50   108    1
    70    51    59    1
    71    52   109    1
    72    52   110    1
    73    52   111    1
    74    53    54    1
    75    54    55    2
    76    54    56    1
    77    56   112    1
    78    56   113    1
    79    56   114    1
    80    57   115    1
    81    57   116    1
    82    57   117    1
    83    58   118    1
    84    58   119    1
    85    58   120    1
    86    59   121    1
    87    59   122    1
    88    59   123    1
    89    60    61    2
    90     1    47    1
    91     1    62    1
    92     2    63    1
    93     3    64    1
    94     4    65    1
    95     5     6    1
    96     7     8    2
    97     9    78    1
    98    15    79    1
    99    18    80    1
   100    18    81    1
   101    19    82    1
   102    19    83    1
   103    20    23    1
   104    21    84    1
   105    21    85    1
   106    22    86    1
   107    22    87    1
   108    27    45    1
   109    28    34    1
   110    32    58    1
   111    33    46    2
   112    36    51    1
   113    36    66    1
   114    37    52    1
   115    37    67    1
   116    38    53    1
   117    38    68    1
   118    42    48    1
   119    42    72    1
   120    43    44    2
   121    60    73    1
   122    61    74    1
   123    39    69    1
   124    39    57    1
   125    40    70    1
   126    40    50    1
   127    41    71    1
   128    41    49    1
