@<TRIPOS>MOLECULE
*****
 123 128 0 0 0
SMALL
GASTEIGER

@<TRIPOS>ATOM
     1 C         5.035507   2.059576   0.643094 C.3        1 UNL1     0.0009
     2 C         6.421356   3.000165   -0.151733 C.2        1 UNL1     -0.0787
     3 C         7.71713   3.021309   -0.797156 C.2        1 UNL1     -0.0649
     4 C         8.512029   4.34477   -1.492097 C.2        1 UNL1     -0.0542
     5 C         9.521906   4.746219   -2.400978 C.2        1 UNL1     0.0115
     6 C         10.706682   4.237969   -3.26776 C.3        1 UNL1     -0.0348
     7 C         9.51622   6.253867   -2.952299 C.2        1 UNL1     0.2441
     8 O         10.270882   7.119433   -2.530627 O.2        1 UNL1     -0.2702
     9 N         8.770898   6.448149   -4.128267 N.am        1 UNL1     -0.2772
     10 C         7.458314   6.727464   -3.824248 C.2        1 UNL1     0.1049
     11 C         6.682576   5.686284   -3.582595 C.2        1 UNL1     0.0801
     12 C         6.022549   8.180909   -2.380845 C.ar        1 UNL1     0.0753
     13 C         5.342504   6.984396   -1.987775 C.ar        1 UNL1     0.0305
     14 C         5.566028   5.715595   -2.677146 C.2        1 UNL1     0.0924
     15 N         6.905979   4.376733   -3.786787 N.pl3        1 UNL1     -0.3170
     16 C         5.679406   3.674481   -3.517317 C.3        1 UNL1     0.1275
     17 N         4.958757   4.543392   -2.515627 N.2        1 UNL1     -0.2557
     18 C         4.844173   3.717247   -4.793349 C.3        1 UNL1     0.0016
     19 C         5.665129   3.132776   -5.931776 C.3        1 UNL1     0.0026
     20 N         6.030848   1.764993   -5.590532 N.3        1 UNL1     -0.3018
     21 C         6.784747   1.615557   -4.344068 C.3        1 UNL1     0.0026
     22 C         5.939636   2.204958   -3.213454 C.3        1 UNL1     0.0016
     23 C         6.552087   1.021982   -6.720527 C.3        1 UNL1     0.0012
     24 C         5.433683   0.724562   -7.731699 C.3        1 UNL1     -0.0339
     25 C         5.639953   1.500733   -9.042832 C.3        1 UNL1     -0.0615
     26 C         5.337466   -0.771247   -7.976802 C.3        1 UNL1     -0.0615
     27 C         5.716008   9.409281   -1.800111 C.ar        1 UNL1     0.1347
     28 C         4.724851   9.571815   -0.84867 C.ar        1 UNL1     0.0342
     29 C         4.10242   8.372547   -0.441853 C.ar        1 UNL1     0.1435
     30 C         4.424238   7.129715   -0.988683 C.ar        1 UNL1     0.0774
     31 O         3.042796   8.377533   0.396107 O.3        1 UNL1     -0.4436
     32 C         2.416931   7.101015   0.196939 C.3        1 UNL1     0.3143
     33 C         3.509276   6.205566   -0.351847 C.2        1 UNL1     0.2504
     34 C         4.171053   10.884088   -0.367682 C.3        1 UNL1     -0.0327
     35 O         2.069405   6.590608   1.489983 O.2        1 UNL1     -0.4528
     36 C         -1.014704   4.440841   0.965711 C.3        1 UNL1     0.0854
     37 C         -1.211659   3.195216   0.018531 C.3        1 UNL1     0.0236
     38 C         -1.729036   1.865123   0.749913 C.3        1 UNL1     0.1131
     39 C         -0.986067   1.341353   2.044491 C.3        1 UNL1     0.0200
     40 C         0.680511   1.317107   2.110581 C.3        1 UNL1     0.0661
     41 C         1.712271   0.664719   0.932671 C.3        1 UNL1     0.0091
     42 C         3.39674   1.172623   0.413055 C.3        1 UNL1     0.0661
     43 C         7.002606   8.085285   -3.491072 C.2        1 UNL1     0.2131
     44 O         7.345764   9.036303   -4.169708 O.2        1 UNL1     -0.2851
     45 O         6.456168   10.517622   -2.206538 O.3        1 UNL1     -0.5056
     46 O         3.612557   5.002469   -0.26385 O.2        1 UNL1     -0.2836
     47 C         5.440384   1.607614   2.072005 C.3        1 UNL1     -0.0566
     48 O         3.947519   -0.203676   0.452543 O.3        1 UNL1     -0.3909
     49 C         0.916923   0.4173   -0.329747 C.3        1 UNL1     -0.0577
     50 O         1.182486   2.560515   2.557437 O.3        1 UNL1     -0.3910
     51 O         -1.145859   4.191273   2.346995 O.3        1 UNL1     -0.3753
     52 C         -0.140483   3.154774   -1.119842 C.3        1 UNL1     -0.0564
     53 O         -2.238853   0.818538   -0.197226 O.3        1 UNL1     -0.4608
     54 C         -2.069503   -0.533768   -0.053983 C.2        1 UNL1     0.3042
     55 O         -1.270617   -1.253866   -0.651543 O.2        1 UNL1     -0.2512
     56 C         -2.946035   -1.140875   1.004236 C.3        1 UNL1     0.0332
     57 C         -1.774183   1.90839   3.31552 C.3        1 UNL1     -0.0567
     58 C         1.343392   7.306148   -0.897119 C.3        1 UNL1     0.0210
     59 C         -2.334543   4.712106   2.939979 C.3        1 UNL1     0.0372
     60 C         0.267322   5.174165   0.781849 C.2        1 UNL1     -0.0208
     61 C         1.131877   5.643029   1.682657 C.2        1 UNL1     0.0882
     62 H         4.486538   3.002136   0.756784 H        1 UNL1     0.0365
     63 H         6.076008   4.026888   -0.013732 H        1 UNL1     0.0576
     64 H         8.248666   2.099609   -1.044231 H        1 UNL1     0.0615
     65 H         7.953026   5.208379   -1.121722 H        1 UNL1     0.0622
     66 H         -1.807842   5.141458   0.668871 H        1 UNL1     0.0645
     67 H         -2.088237   3.462374   -0.596934 H        1 UNL1     0.0362
     68 H         -2.71125   2.217786   1.099778 H        1 UNL1     0.0741
     69 H         -1.244585   0.302063   2.197635 H        1 UNL1     0.0359
     70 H         0.827374   0.634705   2.969544 H        1 UNL1     0.0600
     71 H         1.824947   -0.365535   1.323616 H        1 UNL1     0.0348
     72 H         3.239779   1.61519   1.407446 H        1 UNL1     0.0602
     73 H         0.38625   5.417708   -0.244694 H        1 UNL1     0.0628
     74 H         1.113493   5.392278   2.7438 H        1 UNL1     0.1022
     75 H         11.370433   3.567713   -2.670076 H        1 UNL1     0.0279
     76 H         10.450797   3.613931   -4.121087 H        1 UNL1     0.0279
     77 H         11.404395   5.040996   -3.547126 H        1 UNL1     0.0279
     78 H         8.781773   5.595973   -4.684825 H        1 UNL1     0.1553
     79 H         7.610649   4.021984   -4.406889 H        1 UNL1     0.1484
     80 H         3.919109   3.15003   -4.634327 H        1 UNL1     0.0317
     81 H         4.545431   4.743799   -5.031248 H        1 UNL1     0.0317
     82 H         6.557497   3.739958   -6.143721 H        1 UNL1     0.0428
     83 H         5.05146   3.174632   -6.832169 H        1 UNL1     0.0428
     84 H         6.977377   0.573591   -4.070183 H        1 UNL1     0.0428
     85 H         7.786153   2.062022   -4.415985 H        1 UNL1     0.0428
     86 H         6.459131   1.959937   -2.305667 H        1 UNL1     0.0317
     87 H         4.996541   1.652206   -3.123275 H        1 UNL1     0.0317
     88 H         7.313779   1.640026   -7.21362 H        1 UNL1     0.0429
     89 H         7.048233   0.098317   -6.395785 H        1 UNL1     0.0429
     90 H         4.470427   1.019749   -7.299014 H        1 UNL1     0.0308
     91 H         6.675404   1.428824   -9.388912 H        1 UNL1     0.0233
     92 H         4.974082   1.124785   -9.823144 H        1 UNL1     0.0233
     93 H         5.413653   2.568544   -8.936048 H        1 UNL1     0.0233
     94 H         4.84798   -0.965899   -8.937193 H        1 UNL1     0.0233
     95 H         6.338962   -1.208948   -8.014031 H        1 UNL1     0.0233
     96 H         4.763939   -1.268533   -7.189565 H        1 UNL1     0.0233
     97 H         3.113955   10.987589   -0.593654 H        1 UNL1     0.0280
     98 H         4.257996   10.99584   0.720991 H        1 UNL1     0.0280
     99 H         4.711119   11.712982   -0.853847 H        1 UNL1     0.0280
     100 H         7.388433   10.389273   -2.201021 H        1 UNL1     0.2922
     101 H         4.944632   2.236804   2.810928 H        1 UNL1     0.0236
     102 H         6.519055   1.573744   2.221349 H        1 UNL1     0.0236
     103 H         5.093313   0.585287   2.296912 H        1 UNL1     0.0236
     104 H         3.203532   -0.814375   0.621363 H        1 UNL1     0.2098
     105 H         0.688334   1.314415   -0.89961 H        1 UNL1     0.0234
     106 H         1.328454   -0.351187   -0.983962 H        1 UNL1     0.0234
     107 H         0.0   -0.0   0.0 H        1 UNL1     0.0234
     108 H         2.139357   2.574021   2.362542 H        1 UNL1     0.2098
     109 H         -0.111271   4.08956   -1.696933 H        1 UNL1     0.0234
     110 H         0.865049   2.91696   -0.756395 H        1 UNL1     0.0234
     111 H         -0.354445   2.361926   -1.848923 H        1 UNL1     0.0234
     112 H         -2.747053   -2.214074   1.081663 H        1 UNL1     0.0342
     113 H         -2.823469   -0.650208   1.968636 H        1 UNL1     0.0342
     114 H         -3.993182   -1.013829   0.696817 H        1 UNL1     0.0342
     115 H         -1.756038   1.201191   4.156192 H        1 UNL1     0.0234
     116 H         -1.39551   2.864433   3.68245 H        1 UNL1     0.0234
     117 H         -2.860057   2.013517   3.148888 H        1 UNL1     0.0234
     118 H         0.319031   7.229243   -0.492426 H        1 UNL1     0.0309
     119 H         1.447994   8.257294   -1.428703 H        1 UNL1     0.0309
     120 H         1.370964   6.525103   -1.664788 H        1 UNL1     0.0309
     121 H         -2.129823   4.878907   3.997156 H        1 UNL1     0.0524
     122 H         -2.630887   5.679999   2.502484 H        1 UNL1     0.0524
     123 H         -3.15278   4.007145   2.823309 H        1 UNL1     0.0524
@<TRIPOS>BOND
     1     1     2    1
     2     1    42    1
     3     2     3    2
     4     3     4    1
     5     4     5    2
     6     5     7    1
     7     6    75    1
     8     6    76    1
     9     6    77    1
    10     7     9   am
    11     9    10    1
    12    10    11    2
    13    10    43    1
    14    11    14    1
    15    11    15    1
    16    12    13   ar
    17    12    27   ar
    18    12    43    1
    19    13    14    1
    20    13    30   ar
    21    14    17    2
    22    15    16    1
    23    16    17    1
    24    16    18    1
    25    16    22    1
    26    18    19    1
    27    19    20    1
    28    20    21    1
    29    21    22    1
    30    23    24    1
    31    23    88    1
    32    23    89    1
    33    24    25    1
    34    24    26    1
    35    24    90    1
    36    25    91    1
    37    25    92    1
    38    25    93    1
    39    26    94    1
    40    26    95    1
    41    26    96    1
    42    27    28   ar
    43    28    29   ar
    44    29    30   ar
    45    29    31    1
    46    30    33    1
    47    31    32    1
    48    32    33    1
    49    32    35    1
    50    34    97    1
    51    34    98    1
    52    34    99    1
    53    35    61    1
    54    36    37    1
    55    36    60    1
    56    37    38    1
    57    38    39    1
    58    39    40    1
    59    40    41    1
    60    41    42    1
    61    45   100    1
    62    47   101    1
    63    47   102    1
    64    47   103    1
    65    48   104    1
    66    49   105    1
    67    49   106    1
    68    49   107    1
    69    50   108    1
    70    51    59    1
    71    52   109    1
    72    52   110    1
    73    52   111    1
    74    53    54    1
    75    54    55    2
    76    54    56    1
    77    56   112    1
    78    56   113    1
    79    56   114    1
    80    57   115    1
    81    57   116    1
    82    57   117    1
    83    58   118    1
    84    58   119    1
    85    58   120    1
    86    59   121    1
    87    59   122    1
    88    59   123    1
    89    60    61    2
    90     1    47    1
    91     1    62    1
    92     2    63    1
    93     3    64    1
    94     4    65    1
    95     5     6    1
    96     7     8    2
    97     9    78    1
    98    15    79    1
    99    18    80    1
   100    18    81    1
   101    19    82    1
   102    19    83    1
   103    20    23    1
   104    21    84    1
   105    21    85    1
   106    22    86    1
   107    22    87    1
   108    27    45    1
   109    28    34    1
   110    32    58    1
   111    33    46    2
   112    36    51    1
   113    36    66    1
   114    37    52    1
   115    37    67    1
   116    38    53    1
   117    38    68    1
   118    42    48    1
   119    42    72    1
   120    43    44    2
   121    60    73    1
   122    61    74    1
   123    39    69    1
   124    39    57    1
   125    40    70    1
   126    40    50    1
   127    41    71    1
   128    41    49    1
