@<TRIPOS>MOLECULE
*****
 123 128 0 0 0
SMALL
GASTEIGER

@<TRIPOS>ATOM
     1 C         -4.591614   -2.234882   -1.248214 C.3        1 UNL1     0.0009
     2 C         -5.581722   -2.719257   -2.738885 C.2        1 UNL1     -0.0787
     3 C         -6.752772   -2.559641   -3.575074 C.2        1 UNL1     -0.0649
     4 C         -7.08209   -3.306865   -5.058166 C.2        1 UNL1     -0.0542
     5 C         -7.849582   -3.239503   -6.247072 C.2        1 UNL1     0.0115
     6 C         -9.038393   -2.514589   -6.935948 C.3        1 UNL1     -0.0348
     7 C         -7.376403   -4.086191   -7.526217 C.2        1 UNL1     0.2441
     8 O         -7.901472   -5.140138   -7.857914 O.2        1 UNL1     -0.2702
     9 N         -6.495841   -3.409114   -8.387801 N.am        1 UNL1     -0.2772
     10 C         -5.193007   -3.595682   -7.986379 C.2        1 UNL1     0.1049
     11 C         -4.760445   -2.799799   -7.025294 C.2        1 UNL1     0.0801
     12 C         -3.560428   -5.365504   -7.308332 C.ar        1 UNL1     0.0753
     13 C         -3.276785   -4.554836   -6.163355 C.ar        1 UNL1     0.0305
     14 C         -3.772235   -3.184546   -6.054323 C.2        1 UNL1     0.0924
     15 N         -5.314095   -1.68936   -6.508647 N.pl3        1 UNL1     -0.3170
     16 C         -4.35985   -1.101539   -5.606351 C.3        1 UNL1     0.1275
     17 N         -3.529043   -2.265562   -5.124134 N.2        1 UNL1     -0.2557
     18 C         -3.425186   -0.231087   -6.440868 C.3        1 UNL1     0.0016
     19 C         -4.260523   0.77629   -7.214814 C.3        1 UNL1     0.0026
     20 N         -5.019283   1.581021   -6.267334 N.3        1 UNL1     -0.3018
     21 C         -5.902577   0.825078   -5.376991 C.3        1 UNL1     0.0026
     22 C         -5.04202   -0.177506   -4.606173 C.3        1 UNL1     0.0016
     23 C         -5.612285   2.756344   -6.873641 C.3        1 UNL1     0.0012
     24 C         -4.561734   3.533245   -7.682667 C.3        1 UNL1     -0.0339
     25 C         -3.613142   2.582909   -8.431729 C.3        1 UNL1     -0.0615
     26 C         -5.246607   4.50171   -8.631247 C.3        1 UNL1     -0.0615
     27 C         -2.986119   -6.625271   -7.460892 C.ar        1 UNL1     0.1347
     28 C         -2.085725   -7.162377   -6.558197 C.ar        1 UNL1     0.0342
     29 C         -1.85929   -6.367243   -5.41467 C.ar        1 UNL1     0.1435
     30 C         -2.455477   -5.119052   -5.230818 C.ar        1 UNL1     0.0774
     31 O         -0.925662   -6.701695   -4.497345 O.3        1 UNL1     -0.4436
     32 C         -0.658311   -5.481202   -3.790385 C.3        1 UNL1     0.3143
     33 C         -1.89596   -4.629554   -3.9882 C.2        1 UNL1     0.2504
     34 C         -1.242153   -8.387342   -6.777165 C.3        1 UNL1     -0.0327
     35 O         -0.59167   -5.802684   -2.395587 O.2        1 UNL1     -0.4528
     36 C         1.818914   -3.301654   -0.865221 C.3        1 UNL1     0.0854
     37 C         1.757103   -1.725693   -0.872218 C.3        1 UNL1     0.0236
     38 C         1.81558   -1.040588   0.576559 C.3        1 UNL1     0.1131
     39 C         0.835229   -1.530909   1.717071 C.3        1 UNL1     0.0200
     40 C         -0.772106   -1.82428   1.381147 C.3        1 UNL1     0.0661
     41 C         -1.823924   -0.774525   0.563037 C.3        1 UNL1     0.0091
     42 C         -3.245293   -1.134828   -0.539367 C.3        1 UNL1     0.0661
     43 C         -4.4164   -4.783434   -8.371707 C.2        1 UNL1     0.2131
     44 O         -4.417485   -5.175285   -9.524612 O.2        1 UNL1     -0.2851
     45 O         -3.350194   -7.36878   -8.581643 O.3        1 UNL1     -0.5056
     46 O         -2.333833   -3.75842   -3.270393 O.2        1 UNL1     -0.2836
     47 C         -5.241863   -2.806838   0.040205 C.3        1 UNL1     -0.0566
     48 O         -4.154116   -0.172259   0.128928 O.3        1 UNL1     -0.3909
     49 C         -1.008458   0.308171   -0.107991 C.3        1 UNL1     -0.0577
     50 O         -0.954095   -3.147551   0.919023 O.3        1 UNL1     -0.3910
     51 O         1.741665   -3.915589   0.401487 O.3        1 UNL1     -0.3753
     52 C         0.831859   -1.184761   -2.010755 C.3        1 UNL1     -0.0564
     53 O         2.107732   0.430853   0.533714 O.3        1 UNL1     -0.4608
     54 C         3.32197   1.008439   0.798192 C.2        1 UNL1     0.3042
     55 O         4.275904   0.504262   1.389509 O.2        1 UNL1     -0.2512
     56 C         3.466301   2.391797   0.230564 C.3        1 UNL1     0.0332
     57 C         1.621484   -2.609756   2.598017 C.3        1 UNL1     -0.0567
     58 C         0.531252   -4.80818   -4.513926 C.3        1 UNL1     0.0210
     59 C         2.678272   -3.428897   1.361572 C.3        1 UNL1     0.0372
     60 C         0.811845   -3.974324   -1.730373 C.2        1 UNL1     -0.0208
     61 C         0.026133   -5.024094   -1.486685 C.2        1 UNL1     0.0882
     62 H         -3.81856   -2.950627   -1.552859 H        1 UNL1     0.0365
     63 H         -4.982692   -3.54875   -3.120428 H        1 UNL1     0.0576
     64 H         -7.490464   -1.777154   -3.38368 H        1 UNL1     0.0615
     65 H         -6.346057   -4.113567   -5.112657 H        1 UNL1     0.0622
     66 H         2.798942   -3.541385   -1.301248 H        1 UNL1     0.0645
     67 H         2.728811   -1.421177   -1.298379 H        1 UNL1     0.0362
     68 H         2.818078   -1.366126   0.893647 H        1 UNL1     0.0741
     69 H         0.782132   -0.767883   2.482173 H        1 UNL1     0.0359
     70 H         -1.183495   -1.831095   2.408655 H        1 UNL1     0.0600
     71 H         -2.25272   -0.222272   1.422169 H        1 UNL1     0.0348
     72 H         -3.070132   -2.053218   0.039592 H        1 UNL1     0.0602
     73 H         0.864685   -3.566985   -2.709419 H        1 UNL1     0.0628
     74 H         -0.128227   -5.463044   -0.500413 H        1 UNL1     0.1022
     75 H         -8.933046   -2.557411   -8.046849 H        1 UNL1     0.0279
     76 H         -10.025464   -2.943156   -6.777549 H        1 UNL1     0.0279
     77 H         -9.034382   -1.42898   -6.759485 H        1 UNL1     0.0279
     78 H         -6.686309   -2.409746   -8.355183 H        1 UNL1     0.1553
     79 H         -6.02542   -1.1543   -6.97196 H        1 UNL1     0.1484
     80 H         -2.711541   0.26822   -5.774406 H        1 UNL1     0.0317
     81 H         -2.834279   -0.842039   -7.131678 H        1 UNL1     0.0317
     82 H         -4.926772   0.282897   -7.937718 H        1 UNL1     0.0428
     83 H         -3.57454   1.38534   -7.804335 H        1 UNL1     0.0428
     84 H         -6.399706   1.443802   -4.62343 H        1 UNL1     0.0428
     85 H         -6.730885   0.355347   -5.92524 H        1 UNL1     0.0428
     86 H         -5.694449   -0.616704   -3.874443 H        1 UNL1     0.0317
     87 H         -4.300466   0.354833   -3.998054 H        1 UNL1     0.0317
     88 H         -6.404895   2.424975   -7.557204 H        1 UNL1     0.0429
     89 H         -6.085558   3.398306   -6.119537 H        1 UNL1     0.0429
     90 H         -3.968113   4.152334   -6.999619 H        1 UNL1     0.0308
     91 H         -2.822154   3.135524   -8.947535 H        1 UNL1     0.0233
     92 H         -3.159496   1.867187   -7.742124 H        1 UNL1     0.0233
     93 H         -4.133057   1.987566   -9.192052 H        1 UNL1     0.0233
     94 H         -5.308783   5.496028   -8.175943 H        1 UNL1     0.0233
     95 H         -4.669612   4.589889   -9.556052 H        1 UNL1     0.0233
     96 H         -6.259345   4.170355   -8.877281 H        1 UNL1     0.0233
     97 H         -0.23705   -8.136952   -7.103207 H        1 UNL1     0.0280
     98 H         -1.122102   -8.976721   -5.858756 H        1 UNL1     0.0280
     99 H         -1.707393   -9.022777   -7.548443 H        1 UNL1     0.0280
     100 H         -4.135975   -7.074951   -9.008063 H        1 UNL1     0.2922
     101 H         -6.010667   -2.122766   0.398871 H        1 UNL1     0.0236
     102 H         -4.515839   -3.04899   0.815599 H        1 UNL1     0.0236
     103 H         -5.77573   -3.752844   -0.150197 H        1 UNL1     0.0236
     104 H         -3.601574   0.43937   0.653885 H        1 UNL1     0.2098
     105 H         -1.207956   0.427626   -1.169944 H        1 UNL1     0.0234
     106 H         -1.036488   1.275802   0.39284 H        1 UNL1     0.0234
     107 H         0.0   0.0   0.0 H        1 UNL1     0.0234
     108 H         -0.525494   -3.741841   1.564692 H        1 UNL1     0.2098
     109 H         1.393608   -0.94365   -2.923999 H        1 UNL1     0.0234
     110 H         0.008556   -1.86441   -2.255691 H        1 UNL1     0.0234
     111 H         0.329708   -0.253641   -1.716126 H        1 UNL1     0.0234
     112 H         3.978799   3.037658   0.949978 H        1 UNL1     0.0342
     113 H         3.981865   2.389163   -0.728618 H        1 UNL1     0.0342
     114 H         2.460335   2.802069   0.066634 H        1 UNL1     0.0342
     115 H         1.896469   -2.209901   3.583758 H        1 UNL1     0.0234
     116 H         1.06854   -3.536748   2.762299 H        1 UNL1     0.0234
     117 H         2.612894   -2.872249   2.190409 H        1 UNL1     0.0234
     118 H         0.197733   -4.043258   -5.236882 H        1 UNL1     0.0309
     119 H         1.254444   -4.359302   -3.825663 H        1 UNL1     0.0309
     120 H         1.098482   -5.511187   -5.133713 H        1 UNL1     0.0309
     121 H         2.2647   -2.517828   1.79316 H        1 UNL1     0.0524
     122 H         2.841173   -4.142645   2.186232 H        1 UNL1     0.0524
     123 H         3.631034   -3.218478   0.884012 H        1 UNL1     0.0524
@<TRIPOS>BOND
     1     1     2    1
     2     1    42    1
     3     2     3    2
     4     3     4    1
     5     4     5    2
     6     5     7    1
     7     6    75    1
     8     6    76    1
     9     6    77    1
    10     7     9   am
    11     9    10    1
    12    10    11    2
    13    10    43    1
    14    11    14    1
    15    11    15    1
    16    12    13   ar
    17    12    27   ar
    18    12    43    1
    19    13    14    1
    20    13    30   ar
    21    14    17    2
    22    15    16    1
    23    16    17    1
    24    16    18    1
    25    16    22    1
    26    18    19    1
    27    19    20    1
    28    20    21    1
    29    21    22    1
    30    23    24    1
    31    23    88    1
    32    23    89    1
    33    24    25    1
    34    24    26    1
    35    24    90    1
    36    25    91    1
    37    25    92    1
    38    25    93    1
    39    26    94    1
    40    26    95    1
    41    26    96    1
    42    27    28   ar
    43    28    29   ar
    44    29    30   ar
    45    29    31    1
    46    30    33    1
    47    31    32    1
    48    32    33    1
    49    32    35    1
    50    34    97    1
    51    34    98    1
    52    34    99    1
    53    35    61    1
    54    36    37    1
    55    36    60    1
    56    37    38    1
    57    38    39    1
    58    39    40    1
    59    40    41    1
    60    41    42    1
    61    45   100    1
    62    47   101    1
    63    47   102    1
    64    47   103    1
    65    48   104    1
    66    49   105    1
    67    49   106    1
    68    49   107    1
    69    50   108    1
    70    51    59    1
    71    52   109    1
    72    52   110    1
    73    52   111    1
    74    53    54    1
    75    54    55    2
    76    54    56    1
    77    56   112    1
    78    56   113    1
    79    56   114    1
    80    57   115    1
    81    57   116    1
    82    57   117    1
    83    58   118    1
    84    58   119    1
    85    58   120    1
    86    59   121    1
    87    59   122    1
    88    59   123    1
    89    60    61    2
    90     1    47    1
    91     1    62    1
    92     2    63    1
    93     3    64    1
    94     4    65    1
    95     5     6    1
    96     7     8    2
    97     9    78    1
    98    15    79    1
    99    18    80    1
   100    18    81    1
   101    19    82    1
   102    19    83    1
   103    20    23    1
   104    21    84    1
   105    21    85    1
   106    22    86    1
   107    22    87    1
   108    27    45    1
   109    28    34    1
   110    32    58    1
   111    33    46    2
   112    36    51    1
   113    36    66    1
   114    37    52    1
   115    37    67    1
   116    38    53    1
   117    38    68    1
   118    42    48    1
   119    42    72    1
   120    43    44    2
   121    60    73    1
   122    61    74    1
   123    39    69    1
   124    39    57    1
   125    40    70    1
   126    40    50    1
   127    41    71    1
   128    41    49    1
