@<TRIPOS>MOLECULE
*****
 123 128 0 0 0
SMALL
GASTEIGER

@<TRIPOS>ATOM
     1 C         5.142287   1.821421   0.496767 C.3        1 UNL1     0.0009
     2 C         6.559578   2.66781   -0.347003 C.2        1 UNL1     -0.0787
     3 C         7.840775   2.604512   -1.01825 C.2        1 UNL1     -0.0649
     4 C         8.690728   3.867299   -1.759403 C.2        1 UNL1     -0.0542
     5 C         9.701363   4.193277   -2.697185 C.2        1 UNL1     0.0115
     6 C         10.838707   3.602585   -3.575167 C.3        1 UNL1     -0.0348
     7 C         9.764953   5.686424   -3.283236 C.2        1 UNL1     0.2441
     8 O         10.573638   6.519043   -2.896841 O.2        1 UNL1     -0.2702
     9 N         9.006583   5.894603   -4.448434 N.am        1 UNL1     -0.2772
     10 C         7.717543   6.251183   -4.125092 C.2        1 UNL1     0.1049
     11 C         6.892335   5.259103   -3.843966 C.2        1 UNL1     0.0801
     12 C         6.392427   7.811819   -2.687798 C.ar        1 UNL1     0.0753
     13 C         5.657603   6.662856   -2.253603 C.ar        1 UNL1     0.0305
     14 C         5.798233   5.368843   -2.917535 C.2        1 UNL1     0.0924
     15 N         7.040851   3.935178   -4.021995 N.pl3        1 UNL1     -0.3170
     16 C         5.784316   3.30645   -3.712037 C.3        1 UNL1     0.1275
     17 N         5.132504   4.235074   -2.716787 N.2        1 UNL1     -0.2557
     18 C         4.925956   3.366017   -4.971946 C.3        1 UNL1     0.0016
     19 C         5.69029   2.712887   -6.112474 C.3        1 UNL1     0.0026
     20 N         5.989222   1.335231   -5.746782 N.3        1 UNL1     -0.3018
     21 C         6.760042   1.172921   -4.512334 C.3        1 UNL1     0.0026
     22 C         5.971693   1.832106   -3.379251 C.3        1 UNL1     0.0016
     23 C         6.446013   0.540232   -6.869262 C.3        1 UNL1     0.0012
     24 C         5.292272   0.281386   -7.850913 C.3        1 UNL1     -0.0339
     25 C         5.293669   1.30096   -9.001793 C.3        1 UNL1     -0.0615
     26 C         5.358482   -1.145207   -8.367853 C.3        1 UNL1     -0.0615
     27 C         6.164467   9.067553   -2.129869 C.ar        1 UNL1     0.1347
     28 C         5.203659   9.304525   -1.163048 C.ar        1 UNL1     0.0342
     29 C         4.526496   8.149999   -0.716188 C.ar        1 UNL1     0.1435
     30 C         4.769643   6.879756   -1.240195 C.ar        1 UNL1     0.0774
     31 O         3.486502   8.230879   0.142227 O.3        1 UNL1     -0.4436
     32 C         2.789037   6.98598   -0.014748 C.3        1 UNL1     0.3143
     33 C         3.82002   6.020804   -0.564041 C.2        1 UNL1     0.2504
     34 C         4.731257   10.655177   -0.701881 C.3        1 UNL1     -0.0327
     35 O         2.441881   6.523925   1.29645 O.2        1 UNL1     -0.4528
     36 C         -0.763405   4.533025   0.883484 C.3        1 UNL1     0.0854
     37 C         -1.04673   3.279174   -0.030358 C.3        1 UNL1     0.0236
     38 C         -1.619211   1.995565   0.741883 C.3        1 UNL1     0.1131
     39 C         -0.878366   1.461219   2.033353 C.3        1 UNL1     0.0200
     40 C         0.785534   1.348336   2.067007 C.3        1 UNL1     0.0661
     41 C         1.75585   0.615127   0.884425 C.3        1 UNL1     0.0091
     42 C         3.453844   1.019523   0.319904 C.3        1 UNL1     0.0661
     43 C         7.342405   7.638721   -3.814669 C.2        1 UNL1     0.2131
     44 O         7.721736   8.554497   -4.521917 O.2        1 UNL1     -0.2851
     45 O         6.954296   10.124947   -2.576552 O.3        1 UNL1     -0.5056
     46 O         3.860462   4.81613   -0.450117 O.2        1 UNL1     -0.2836
     47 C         5.552273   1.380028   1.927524 C.3        1 UNL1     -0.0566
     48 O         3.930733   -0.383338   0.380519 O.3        1 UNL1     -0.3909
     49 C         0.922033   0.383149   -0.355909 C.3        1 UNL1     -0.0577
     50 O         1.362742   2.572377   2.474777 O.3        1 UNL1     -0.3910
     51 O         -0.878709   4.321618   2.272528 O.3        1 UNL1     -0.3753
     52 C         -0.003416   3.155611   -1.18845 C.3        1 UNL1     -0.0564
     53 O         -2.204204   0.957337   -0.170362 O.3        1 UNL1     -0.4608
     54 C         -2.398765   -0.361453   0.147236 C.2        1 UNL1     0.3042
     55 O         -1.808292   -1.336284   -0.316322 O.2        1 UNL1     -0.2512
     56 C         -3.42037   -0.57547   1.227622 C.3        1 UNL1     0.0332
     57 C         -1.608064   2.09811   3.306179 C.3        1 UNL1     -0.0567
     58 C         1.705296   7.224562   -1.091834 C.3        1 UNL1     0.0210
     59 C         -1.24349   5.476817   3.026395 C.3        1 UNL1     0.0372
     60 C         0.551955   5.191673   0.657273 C.2        1 UNL1     -0.0208
     61 C         1.459143   5.632952   1.529642 C.2        1 UNL1     0.0882
     62 H         4.647163   2.794584   0.59932 H        1 UNL1     0.0365
     63 H         6.272762   3.714518   -0.226137 H        1 UNL1     0.0576
     64 H         8.316812   1.650158   -1.254267 H        1 UNL1     0.0615
     65 H         8.186745   4.767883   -1.398249 H        1 UNL1     0.0622
     66 H         -1.523892   5.268761   0.586162 H        1 UNL1     0.0645
     67 H         -1.920457   3.579637   -0.634414 H        1 UNL1     0.0362
     68 H         -2.573533   2.408513   1.102806 H        1 UNL1     0.0741
     69 H         -1.188971   0.441087   2.215736 H        1 UNL1     0.0359
     70 H         0.913604   0.67821   2.938552 H        1 UNL1     0.0600
     71 H         1.821304   -0.410787   1.296944 H        1 UNL1     0.0348
     72 H         3.341767   1.491881   1.306632 H        1 UNL1     0.0602
     73 H         0.66218   5.405596   -0.376814 H        1 UNL1     0.0628
     74 H         1.449634   5.407162   2.596491 H        1 UNL1     0.1022
     75 H         10.905754   2.496399   -3.437719 H        1 UNL1     0.0279
     76 H         10.719581   3.698038   -4.652092 H        1 UNL1     0.0279
     77 H         11.838675   3.922746   -3.247659 H        1 UNL1     0.0279
     78 H         8.960049   5.030952   -4.985107 H        1 UNL1     0.1553
     79 H         7.7123   3.529165   -4.647489 H        1 UNL1     0.1484
     80 H         3.975351   2.853334   -4.781492 H        1 UNL1     0.0317
     81 H         4.677762   4.401695   -5.227723 H        1 UNL1     0.0317
     82 H         6.609285   3.266061   -6.35611 H        1 UNL1     0.0428
     83 H         5.060969   2.767893   -7.001282 H        1 UNL1     0.0428
     84 H         6.902229   0.128393   -4.218129 H        1 UNL1     0.0428
     85 H         7.782217   1.562861   -4.614422 H        1 UNL1     0.0428
     86 H         6.496257   1.57954   -2.47646 H        1 UNL1     0.0317
     87 H         5.002416   1.333311   -3.257589 H        1 UNL1     0.0317
     88 H         7.229225   1.105081   -7.391582 H        1 UNL1     0.0429
     89 H         6.898625   -0.401486   -6.532982 H        1 UNL1     0.0429
     90 H         4.339388   0.361655   -7.314461 H        1 UNL1     0.0308
     91 H         6.242491   1.284723   -9.546381 H        1 UNL1     0.0233
     92 H         4.476812   1.098288   -9.698411 H        1 UNL1     0.0233
     93 H         5.146833   2.329021   -8.64914 H        1 UNL1     0.0233
     94 H         4.66193   -1.27707   -9.202877 H        1 UNL1     0.0233
     95 H         6.366235   -1.364396   -8.731657 H        1 UNL1     0.0233
     96 H         5.10103   -1.865281   -7.586073 H        1 UNL1     0.0233
     97 H         3.941726   10.579308   0.039817 H        1 UNL1     0.0280
     98 H         5.534163   11.234789   -0.22791 H        1 UNL1     0.0280
     99 H         4.343284   11.224139   -1.56261 H        1 UNL1     0.0280
     100 H         6.471243   10.870225   -2.887749 H        1 UNL1     0.2922
     101 H         4.700091   0.922278   2.429428 H        1 UNL1     0.0236
     102 H         5.988989   2.186114   2.516156 H        1 UNL1     0.0236
     103 H         6.32436   0.592719   1.912739 H        1 UNL1     0.0236
     104 H         4.355826   -0.513017   1.250835 H        1 UNL1     0.2098
     105 H         0.709721   1.282225   -0.928969 H        1 UNL1     0.0234
     106 H         1.291498   -0.404696   -1.012204 H        1 UNL1     0.0234
     107 H         0.0   -0.0   0.0 H        1 UNL1     0.0234
     108 H         1.148625   3.236081   1.791096 H        1 UNL1     0.2098
     109 H         1.024835   3.057374   -0.813268 H        1 UNL1     0.0234
     110 H         -0.221765   2.333529   -1.878557 H        1 UNL1     0.0234
     111 H         -0.002166   4.047635   -1.828948 H        1 UNL1     0.0234
     112 H         -3.521109   -1.644541   1.438059 H        1 UNL1     0.0342
     113 H         -3.181346   -0.019845   2.133156 H        1 UNL1     0.0342
     114 H         -4.389792   -0.21177   0.860052 H        1 UNL1     0.0342
     115 H         -2.672384   1.828009   3.344364 H        1 UNL1     0.0234
     116 H         -1.162672   1.813835   4.261617 H        1 UNL1     0.0234
     117 H         -1.66879   3.199543   3.27303 H        1 UNL1     0.0234
     118 H         0.796183   7.687607   -0.669806 H        1 UNL1     0.0309
     119 H         2.059834   7.831478   -1.930976 H        1 UNL1     0.0309
     120 H         1.333855   6.291004   -1.52842 H        1 UNL1     0.0309
     121 H         -0.454313   6.217111   2.897866 H        1 UNL1     0.0524
     122 H         -2.184058   5.929014   2.670182 H        1 UNL1     0.0524
     123 H         -1.350621   5.221681   4.076882 H        1 UNL1     0.0524
@<TRIPOS>BOND
     1     1     2    1
     2     1    42    1
     3     2     3    2
     4     3     4    1
     5     4     5    2
     6     5     7    1
     7     6    75    1
     8     6    76    1
     9     6    77    1
    10     7     9   am
    11     9    10    1
    12    10    11    2
    13    10    43    1
    14    11    14    1
    15    11    15    1
    16    12    13   ar
    17    12    27   ar
    18    12    43    1
    19    13    14    1
    20    13    30   ar
    21    14    17    2
    22    15    16    1
    23    16    17    1
    24    16    18    1
    25    16    22    1
    26    18    19    1
    27    19    20    1
    28    20    21    1
    29    21    22    1
    30    23    24    1
    31    23    88    1
    32    23    89    1
    33    24    25    1
    34    24    26    1
    35    24    90    1
    36    25    91    1
    37    25    92    1
    38    25    93    1
    39    26    94    1
    40    26    95    1
    41    26    96    1
    42    27    28   ar
    43    28    29   ar
    44    29    30   ar
    45    29    31    1
    46    30    33    1
    47    31    32    1
    48    32    33    1
    49    32    35    1
    50    34    97    1
    51    34    98    1
    52    34    99    1
    53    35    61    1
    54    36    37    1
    55    36    60    1
    56    37    38    1
    57    38    39    1
    58    39    40    1
    59    40    41    1
    60    41    42    1
    61    45   100    1
    62    47   101    1
    63    47   102    1
    64    47   103    1
    65    48   104    1
    66    49   105    1
    67    49   106    1
    68    49   107    1
    69    50   108    1
    70    51    59    1
    71    52   109    1
    72    52   110    1
    73    52   111    1
    74    53    54    1
    75    54    55    2
    76    54    56    1
    77    56   112    1
    78    56   113    1
    79    56   114    1
    80    57   115    1
    81    57   116    1
    82    57   117    1
    83    58   118    1
    84    58   119    1
    85    58   120    1
    86    59   121    1
    87    59   122    1
    88    59   123    1
    89    60    61    2
    90     1    47    1
    91     1    62    1
    92     2    63    1
    93     3    64    1
    94     4    65    1
    95     5     6    1
    96     7     8    2
    97     9    78    1
    98    15    79    1
    99    18    80    1
   100    18    81    1
   101    19    82    1
   102    19    83    1
   103    20    23    1
   104    21    84    1
   105    21    85    1
   106    22    86    1
   107    22    87    1
   108    27    45    1
   109    28    34    1
   110    32    58    1
   111    33    46    2
   112    36    51    1
   113    36    66    1
   114    37    52    1
   115    37    67    1
   116    38    53    1
   117    38    68    1
   118    42    48    1
   119    42    72    1
   120    43    44    2
   121    60    73    1
   122    61    74    1
   123    39    69    1
   124    39    57    1
   125    40    70    1
   126    40    50    1
   127    41    71    1
   128    41    49    1
