@<TRIPOS>MOLECULE
*****
 123 128 0 0 0
SMALL
GASTEIGER

@<TRIPOS>ATOM
     1 C         5.03646   2.056764   0.644629 C.3        1 UNL1     0.0009
     2 C         6.422296   2.998283   -0.149119 C.2        1 UNL1     -0.0787
     3 C         7.717811   3.020127   -0.795038 C.2        1 UNL1     -0.0649
     4 C         8.512867   4.34454   -1.487983 C.2        1 UNL1     -0.0542
     5 C         9.522503   4.747247   -2.396576 C.2        1 UNL1     0.0115
     6 C         10.706752   4.240123   -3.264736 C.3        1 UNL1     -0.0348
     7 C         9.517094   6.255861   -2.945248 C.2        1 UNL1     0.2441
     8 O         10.272219   7.120434   -2.52237 O.2        1 UNL1     -0.2702
     9 N         8.771353   6.452455   -4.120566 N.am        1 UNL1     -0.2772
     10 C         7.458988   6.731674   -3.815516 C.2        1 UNL1     0.1049
     11 C         6.683001   5.69033   -3.57537 C.2        1 UNL1     0.0801
     12 C         6.024304   8.183063   -2.368973 C.ar        1 UNL1     0.0753
     13 C         5.34402   6.98609   -1.977723 C.ar        1 UNL1     0.0305
     14 C         5.566836   5.718426   -2.669411 C.2        1 UNL1     0.0924
     15 N         6.905882   4.381065   -3.781951 N.pl3        1 UNL1     -0.3170
     16 C         5.679185   3.678751   -3.513208 C.3        1 UNL1     0.1275
     17 N         4.95924   4.546143   -2.509698 N.2        1 UNL1     -0.2557
     18 C         4.843441   3.724035   -4.788818 C.3        1 UNL1     0.0016
     19 C         5.663732   3.141288   -5.928607 C.3        1 UNL1     0.0026
     20 N         6.029134   1.772786   -5.589915 N.3        1 UNL1     -0.3018
     21 C         6.783497   1.620912   -4.344025 C.3        1 UNL1     0.0026
     22 C         5.939049   2.208611   -3.212031 C.3        1 UNL1     0.0016
     23 C         6.54966   1.031585   -6.721426 C.3        1 UNL1     0.0012
     24 C         5.430739   0.736313   -7.732657 C.3        1 UNL1     -0.0339
     25 C         5.636729   1.514714   -9.04251 C.3        1 UNL1     -0.0615
     26 C         5.333922   -0.759032   -7.980344 C.3        1 UNL1     -0.0615
     27 C         5.718412   9.410517   -1.785959 C.ar        1 UNL1     0.1347
     28 C         4.727702   9.571712   -0.833825 C.ar        1 UNL1     0.0342
     29 C         4.105038   8.371939   -0.428857 C.ar        1 UNL1     0.1435
     30 C         4.426214   7.129962   -0.977999 C.ar        1 UNL1     0.0774
     31 O         3.045761   8.375809   0.409548 O.3        1 UNL1     -0.4436
     32 C         2.419387   7.099852   0.208399 C.3        1 UNL1     0.3143
     33 C         3.511206   6.205002   -0.342408 C.2        1 UNL1     0.2504
     34 C         4.174541   10.883323   -0.350307 C.3        1 UNL1     -0.0327
     35 O         2.072223   6.587293   1.500689 O.2        1 UNL1     -0.4528
     36 C         -1.01282   4.439478   0.973919 C.3        1 UNL1     0.0854
     37 C         -1.210583   3.195582   0.024637 C.3        1 UNL1     0.0236
     38 C         -1.728103   1.864381   0.753897 C.3        1 UNL1     0.1131
     39 C         -0.984776   1.338093   2.047247 C.3        1 UNL1     0.0200
     40 C         0.681821   1.313175   2.112607 C.3        1 UNL1     0.0661
     41 C         1.712877   0.66251   0.933129 C.3        1 UNL1     0.0091
     42 C         3.397302   1.170763   0.41371 C.3        1 UNL1     0.0661
     43 C         7.003871   8.089061   -3.47977 C.2        1 UNL1     0.2131
     44 O         7.347068   9.041152   -4.156878 O.2        1 UNL1     -0.2851
     45 O         6.458776   10.519322   -2.190746 O.3        1 UNL1     -0.5056
     46 O         3.614121   5.001718   -0.256563 O.2        1 UNL1     -0.2836
     47 C         5.441774   1.602161   2.072578 C.3        1 UNL1     -0.0566
     48 O         3.947637   -0.205787   0.450556 O.3        1 UNL1     -0.3909
     49 C         0.916926   0.417572   -0.329393 C.3        1 UNL1     -0.0577
     50 O         1.184396   2.55563   2.561437 O.3        1 UNL1     -0.3910
     51 O         -1.143491   4.187531   2.354817 O.3        1 UNL1     -0.3753
     52 C         -0.139889   3.156781   -1.114248 C.3        1 UNL1     -0.0564
     53 O         -2.23866   0.81963   -0.194866 O.3        1 UNL1     -0.4608
     54 C         -2.378054   -0.513463   0.090374 C.2        1 UNL1     0.3042
     55 O         -1.684547   -1.442093   -0.322582 O.2        1 UNL1     -0.2512
     56 C         -3.483043   -0.807676   1.064619 C.3        1 UNL1     0.0332
     57 C         -1.772179   1.903162   3.319595 C.3        1 UNL1     -0.0567
     58 C         1.345466   7.307262   -0.884854 C.3        1 UNL1     0.0210
     59 C         -2.331756   4.707719   2.949203 C.3        1 UNL1     0.0372
     60 C         0.269375   5.172696   0.790815 C.2        1 UNL1     -0.0208
     61 C         1.134458   5.63969   1.692088 C.2        1 UNL1     0.0882
     62 H         4.487853   2.999306   0.760199 H        1 UNL1     0.0365
     63 H         6.077348   4.024878   -0.009174 H        1 UNL1     0.0576
     64 H         8.248937   2.098685   -1.043949 H        1 UNL1     0.0615
     65 H         7.954305   5.207685   -1.115864 H        1 UNL1     0.0622
     66 H         -1.805846   5.140879   0.678636 H        1 UNL1     0.0645
     67 H         -2.087325   3.464112   -0.589997 H        1 UNL1     0.0362
     68 H         -2.710055   2.216758   1.104786 H        1 UNL1     0.0741
     69 H         -1.243579   0.298623   2.198675 H        1 UNL1     0.0359
     70 H         0.82881   0.629218   2.970312 H        1 UNL1     0.0600
     71 H         1.82537   -0.368465   1.32222 H        1 UNL1     0.0348
     72 H         3.240898   1.611637   1.408941 H        1 UNL1     0.0602
     73 H         0.387961   5.418   -0.235349 H        1 UNL1     0.0628
     74 H         1.116426   5.387083   2.752796 H        1 UNL1     0.1022
     75 H         10.780908   3.126998   -3.214839 H        1 UNL1     0.0279
     76 H         10.636839   4.422513   -4.334743 H        1 UNL1     0.0279
     77 H         11.686337   4.540791   -2.865096 H        1 UNL1     0.0279
     78 H         8.781714   5.601253   -4.678622 H        1 UNL1     0.1553
     79 H         7.610177   4.027169   -4.402965 H        1 UNL1     0.1484
     80 H         3.918253   3.156848   -4.63041 H        1 UNL1     0.0317
     81 H         4.544945   4.751102   -5.024792 H        1 UNL1     0.0317
     82 H         6.556216   3.748543   -6.139855 H        1 UNL1     0.0428
     83 H         5.049707   3.184928   -6.828672 H        1 UNL1     0.0428
     84 H         6.975891   0.578403   -4.072048 H        1 UNL1     0.0428
     85 H         7.785023   2.067168   -4.415572 H        1 UNL1     0.0428
     86 H         6.458836   1.961823   -2.304889 H        1 UNL1     0.0317
     87 H         4.995806   1.656016   -3.122433 H        1 UNL1     0.0317
     88 H         7.311356   1.650239   -7.213748 H        1 UNL1     0.0429
     89 H         7.04563   0.107187   -6.398509 H        1 UNL1     0.0429
     90 H         4.467761   1.031061   -7.299057 H        1 UNL1     0.0308
     91 H         6.672014   1.443067   -9.389143 H        1 UNL1     0.0233
     92 H         4.970411   1.140358   -9.823207 H        1 UNL1     0.0233
     93 H         5.41083   2.582412   -8.933761 H        1 UNL1     0.0233
     94 H         4.843975   -0.951835   -8.940873 H        1 UNL1     0.0233
     95 H         6.335256   -1.197001   -8.018754 H        1 UNL1     0.0233
     96 H         4.760553   -1.257507   -7.193744 H        1 UNL1     0.0233
     97 H         3.322518   10.747889   0.309196 H        1 UNL1     0.0280
     98 H         4.912549   11.456455   0.225992 H        1 UNL1     0.0280
     99 H         3.850862   11.487949   -1.213299 H        1 UNL1     0.0280
     100 H         7.391   10.390652   -2.185839 H        1 UNL1     0.2922
     101 H         4.637333   1.013673   2.513273 H        1 UNL1     0.0236
     102 H         5.74402   2.428   2.715711 H        1 UNL1     0.0236
     103 H         6.310711   0.923203   2.060011 H        1 UNL1     0.0236
     104 H         4.283566   -0.365044   1.354303 H        1 UNL1     0.2098
     105 H         0.688403   1.315761   -0.897587 H        1 UNL1     0.0234
     106 H         1.327931   -0.349903   -0.985125 H        1 UNL1     0.0234
     107 H         0.0   -0.0   0.0 H        1 UNL1     0.0234
     108 H         1.08589   3.19103   1.826365 H        1 UNL1     0.2098
     109 H         -0.186759   4.044995   -1.759686 H        1 UNL1     0.0234
     110 H         0.8817   3.029012   -0.740385 H        1 UNL1     0.0234
     111 H         -0.288944   2.296834   -1.780746 H        1 UNL1     0.0234
     112 H         -4.059372   -1.673013   0.723469 H        1 UNL1     0.0342
     113 H         -3.107758   -0.961963   2.075164 H        1 UNL1     0.0342
     114 H         -4.158578   0.058476   1.089034 H        1 UNL1     0.0342
     115 H         -2.845907   1.675583   3.26957 H        1 UNL1     0.0234
     116 H         -1.400846   1.526515   4.274738 H        1 UNL1     0.0234
     117 H         -1.79018   3.005377   3.371946 H        1 UNL1     0.0234
     118 H         0.321324   7.215835   -0.482635 H        1 UNL1     0.0309
     119 H         1.441644   8.265445   -1.405274 H        1 UNL1     0.0309
     120 H         1.38165   6.535434   -1.661436 H        1 UNL1     0.0309
     121 H         -2.126544   4.872597   4.006587 H        1 UNL1     0.0524
     122 H         -2.627956   5.676477   2.51353 H        1 UNL1     0.0524
     123 H         -3.150276   4.003237   2.831635 H        1 UNL1     0.0524
@<TRIPOS>BOND
     1     1     2    1
     2     1    42    1
     3     2     3    2
     4     3     4    1
     5     4     5    2
     6     5     7    1
     7     6    75    1
     8     6    76    1
     9     6    77    1
    10     7     9   am
    11     9    10    1
    12    10    11    2
    13    10    43    1
    14    11    14    1
    15    11    15    1
    16    12    13   ar
    17    12    27   ar
    18    12    43    1
    19    13    14    1
    20    13    30   ar
    21    14    17    2
    22    15    16    1
    23    16    17    1
    24    16    18    1
    25    16    22    1
    26    18    19    1
    27    19    20    1
    28    20    21    1
    29    21    22    1
    30    23    24    1
    31    23    88    1
    32    23    89    1
    33    24    25    1
    34    24    26    1
    35    24    90    1
    36    25    91    1
    37    25    92    1
    38    25    93    1
    39    26    94    1
    40    26    95    1
    41    26    96    1
    42    27    28   ar
    43    28    29   ar
    44    29    30   ar
    45    29    31    1
    46    30    33    1
    47    31    32    1
    48    32    33    1
    49    32    35    1
    50    34    97    1
    51    34    98    1
    52    34    99    1
    53    35    61    1
    54    36    37    1
    55    36    60    1
    56    37    38    1
    57    38    39    1
    58    39    40    1
    59    40    41    1
    60    41    42    1
    61    45   100    1
    62    47   101    1
    63    47   102    1
    64    47   103    1
    65    48   104    1
    66    49   105    1
    67    49   106    1
    68    49   107    1
    69    50   108    1
    70    51    59    1
    71    52   109    1
    72    52   110    1
    73    52   111    1
    74    53    54    1
    75    54    55    2
    76    54    56    1
    77    56   112    1
    78    56   113    1
    79    56   114    1
    80    57   115    1
    81    57   116    1
    82    57   117    1
    83    58   118    1
    84    58   119    1
    85    58   120    1
    86    59   121    1
    87    59   122    1
    88    59   123    1
    89    60    61    2
    90     1    47    1
    91     1    62    1
    92     2    63    1
    93     3    64    1
    94     4    65    1
    95     5     6    1
    96     7     8    2
    97     9    78    1
    98    15    79    1
    99    18    80    1
   100    18    81    1
   101    19    82    1
   102    19    83    1
   103    20    23    1
   104    21    84    1
   105    21    85    1
   106    22    86    1
   107    22    87    1
   108    27    45    1
   109    28    34    1
   110    32    58    1
   111    33    46    2
   112    36    51    1
   113    36    66    1
   114    37    52    1
   115    37    67    1
   116    38    53    1
   117    38    68    1
   118    42    48    1
   119    42    72    1
   120    43    44    2
   121    60    73    1
   122    61    74    1
   123    39    69    1
   124    39    57    1
   125    40    70    1
   126    40    50    1
   127    41    71    1
   128    41    49    1
