@<TRIPOS>MOLECULE
*****
 123 128 0 0 0
SMALL
GASTEIGER

@<TRIPOS>ATOM
     1 C         5.036756   2.056015   0.644694 C.3        1 UNL1     0.0009
     2 C         6.422766   2.997295   -0.149034 C.2        1 UNL1     -0.0787
     3 C         7.718287   3.018913   -0.794948 C.2        1 UNL1     -0.0649
     4 C         8.513587   4.343192   -1.487869 C.2        1 UNL1     -0.0542
     5 C         9.5233   4.745729   -2.396452 C.2        1 UNL1     0.0115
     6 C         10.707459   4.238403   -3.264616 C.3        1 UNL1     -0.0348
     7 C         9.518168   6.254353   -2.9451 C.2        1 UNL1     0.2441
     8 O         10.273449   7.118781   -2.522205 O.2        1 UNL1     -0.2702
     9 N         8.772467   6.451102   -4.120418 N.am        1 UNL1     -0.2772
     10 C         7.460151   6.730556   -3.815367 C.2        1 UNL1     0.1049
     11 C         6.683974   5.689349   -3.575241 C.2        1 UNL1     0.0801
     12 C         6.025727   8.182183   -2.368806 C.ar        1 UNL1     0.0753
     13 C         5.345224   6.985327   -1.977577 C.ar        1 UNL1     0.0305
     14 C         5.567811   5.717634   -2.669285 C.2        1 UNL1     0.0924
     15 N         6.906617   4.380047   -3.781842 N.pl3        1 UNL1     -0.3170
     16 C         5.679791   3.677952   -3.513115 C.3        1 UNL1     0.1275
     17 N         4.960001   4.545459   -2.509593 N.2        1 UNL1     -0.2557
     18 C         4.84406   3.723409   -4.788728 C.3        1 UNL1     0.0016
     19 C         5.664249   3.140531   -5.928523 C.3        1 UNL1     0.0026
     20 N         6.0294   1.771957   -5.589851 N.3        1 UNL1     -0.3018
     21 C         6.783731   1.619925   -4.343962 C.3        1 UNL1     0.0026
     22 C         5.939386   2.20776   -3.21196 C.3        1 UNL1     0.0016
     23 C         6.549795   1.030679   -6.721372 C.3        1 UNL1     0.0012
     24 C         5.430824   0.735627   -7.732612 C.3        1 UNL1     -0.0339
     25 C         5.63696   1.514012   -9.042452 C.3        1 UNL1     -0.0615
     26 C         5.333734   -0.759696   -7.980324 C.3        1 UNL1     -0.0615
     27 C         5.720057   9.409683   -1.785773 C.ar        1 UNL1     0.1347
     28 C         4.729373   9.571044   -0.83364 C.ar        1 UNL1     0.0342
     29 C         4.106489   8.371378   -0.428693 C.ar        1 UNL1     0.1435
     30 C         4.427441   7.12935   -0.977854 C.ar        1 UNL1     0.0774
     31 O         3.047209   8.375427   0.409708 O.3        1 UNL1     -0.4436
     32 C         2.420603   7.099587   0.208536 C.3        1 UNL1     0.3143
     33 C         3.512261   6.204547   -0.342281 C.2        1 UNL1     0.2504
     34 C         4.176449   10.882748   -0.350103 C.3        1 UNL1     -0.0327
     35 O         2.073342   6.587071   1.500816 O.2        1 UNL1     -0.4528
     36 C         -1.012091   4.439827   0.974001 C.3        1 UNL1     0.0854
     37 C         -1.210077   3.195983   0.024698 C.3        1 UNL1     0.0236
     38 C         -1.727843   1.864864   0.753935 C.3        1 UNL1     0.1131
     39 C         -0.984616   1.33842   2.047279 C.3        1 UNL1     0.0200
     40 C         0.681976   1.313197   2.112644 C.3        1 UNL1     0.0661
     41 C         1.712918   0.662363   0.93316 C.3        1 UNL1     0.0091
     42 C         3.397437   1.170317   0.413755 C.3        1 UNL1     0.0661
     43 C         7.005281   8.08802   -3.479602 C.2        1 UNL1     0.2131
     44 O         7.348654   9.04006   -4.156693 O.2        1 UNL1     -0.2851
     45 O         6.460624   10.518359   -2.19054 O.3        1 UNL1     -0.5056
     46 O         3.614957   5.001243   -0.256456 O.2        1 UNL1     -0.2836
     47 C         5.441982   1.601315   2.072637 C.3        1 UNL1     -0.0566
     48 O         3.947521   -0.206334   0.450581 O.3        1 UNL1     -0.3909
     49 C         0.916927   0.41759   -0.329369 C.3        1 UNL1     -0.0577
     50 O         1.184775   2.555552   2.561496 O.3        1 UNL1     -0.3910
     51 O         -1.142812   4.187881   2.354894 O.3        1 UNL1     -0.3753
     52 C         -0.139387   3.157004   -1.114184 C.3        1 UNL1     -0.0564
     53 O         -2.238587   0.820221   -0.194847 O.3        1 UNL1     -0.4608
     54 C         -2.378225   -0.512851   0.090371 C.2        1 UNL1     0.3042
     55 O         -1.684886   -1.441601   -0.322597 O.2        1 UNL1     -0.2512
     56 C         -3.483271   -0.806878   1.064607 C.3        1 UNL1     0.0332
     57 C         -1.77192   1.903612   3.319633 C.3        1 UNL1     -0.0567
     58 C         1.346724   7.307211   -0.884718 C.3        1 UNL1     0.0210
     59 C         -2.330985   4.708277   2.949285 C.3        1 UNL1     0.0372
     60 C         0.270238   5.172814   0.790913 C.2        1 UNL1     -0.0208
     61 C         1.135403   5.639636   1.692196 C.2        1 UNL1     0.0882
     62 H         4.48832   2.998655   0.760277 H        1 UNL1     0.0365
     63 H         6.078005   4.02395   -0.009074 H        1 UNL1     0.0576
     64 H         8.249247   2.097378   -1.043872 H        1 UNL1     0.0615
     65 H         7.955181   5.206432   -1.115738 H        1 UNL1     0.0622
     66 H         -1.804988   5.141377   0.678726 H        1 UNL1     0.0645
     67 H         -2.086768   3.464682   -0.589935 H        1 UNL1     0.0362
     68 H         -2.709732   2.217414   1.104826 H        1 UNL1     0.0741
     69 H         -1.243609   0.298994   2.198689 H        1 UNL1     0.0359
     70 H         0.828837   0.629199   2.970338 H        1 UNL1     0.0600
     71 H         1.825221   -0.36864   1.322234 H        1 UNL1     0.0348
     72 H         3.24111   1.611203   1.408992 H        1 UNL1     0.0602
     73 H         0.388872   5.418113   -0.235246 H        1 UNL1     0.0628
     74 H         1.117321   5.387015   2.7529 H        1 UNL1     0.1022
     75 H         11.509973   3.806651   -2.619174 H        1 UNL1     0.0279
     76 H         10.491968   3.420833   -3.948877 H        1 UNL1     0.0279
     77 H         11.247933   5.054907   -3.765525 H        1 UNL1     0.0279
     78 H         8.782674   5.599907   -4.678487 H        1 UNL1     0.1553
     79 H         7.61085   4.026033   -4.40286 H        1 UNL1     0.1484
     80 H         3.918768   3.156388   -4.630332 H        1 UNL1     0.0317
     81 H         4.545752   4.750534   -5.024686 H        1 UNL1     0.0317
     82 H         6.556844   3.747626   -6.139758 H        1 UNL1     0.0428
     83 H         5.050234   3.184297   -6.82859 H        1 UNL1     0.0428
     84 H         6.975934   0.577377   -4.072001 H        1 UNL1     0.0428
     85 H         7.785338   2.065999   -4.415497 H        1 UNL1     0.0428
     86 H         6.459124   1.960863   -2.304821 H        1 UNL1     0.0317
     87 H         4.996042   1.655335   -3.122375 H        1 UNL1     0.0317
     88 H         7.311605   1.649202   -7.213682 H        1 UNL1     0.0429
     89 H         7.045595   0.106185   -6.398469 H        1 UNL1     0.0429
     90 H         4.467898   1.030544   -7.299011 H        1 UNL1     0.0308
     91 H         6.672233   1.442182   -9.389083 H        1 UNL1     0.0233
     92 H         4.970577   1.13979   -9.823157 H        1 UNL1     0.0233
     93 H         5.411255   2.581749   -8.933686 H        1 UNL1     0.0233
     94 H         4.843756   -0.952394   -8.940857 H        1 UNL1     0.0233
     95 H         6.334989   -1.197847   -8.018737 H        1 UNL1     0.0233
     96 H         4.760272   -1.258079   -7.193734 H        1 UNL1     0.0233
     97 H         3.105627   10.958702   -0.513817 H        1 UNL1     0.0280
     98 H         4.326241   11.0226   0.728442 H        1 UNL1     0.0280
     99 H         4.667694   11.710707   -0.886999 H        1 UNL1     0.0280
     100 H         5.944616   11.270298   -2.422802 H        1 UNL1     0.2922
     101 H         4.637431   1.012967   2.513319 H        1 UNL1     0.0236
     102 H         5.744376   2.427089   2.715784 H        1 UNL1     0.0236
     103 H         6.310795   0.922199   2.060062 H        1 UNL1     0.0236
     104 H         4.283418   -0.365667   1.354326 H        1 UNL1     0.2098
     105 H         0.688408   1.315851   -0.897452 H        1 UNL1     0.0234
     106 H         1.327896   -0.349818   -0.985202 H        1 UNL1     0.0234
     107 H         0.0   -0.0   0.0 H        1 UNL1     0.0234
     108 H         1.086388   3.190983   1.826434 H        1 UNL1     0.2098
     109 H         -0.186092   4.045238   -1.759608 H        1 UNL1     0.0234
     110 H         0.882178   3.029043   -0.74032 H        1 UNL1     0.0234
     111 H         -0.288596   2.297095   -1.780696 H        1 UNL1     0.0234
     112 H         -4.059757   -1.672104   0.723442 H        1 UNL1     0.0342
     113 H         -3.108018   -0.96125   2.075151 H        1 UNL1     0.0342
     114 H         -4.158648   0.059397   1.089034 H        1 UNL1     0.0342
     115 H         -2.84569   1.676229   3.269601 H        1 UNL1     0.0234
     116 H         -1.400659   1.526881   4.274771 H        1 UNL1     0.0234
     117 H         -1.789721   3.005829   3.372002 H        1 UNL1     0.0234
     118 H         0.322489   7.230118   -0.479742 H        1 UNL1     0.0309
     119 H         1.4516   8.259243   -1.41466 H        1 UNL1     0.0309
     120 H         1.373579   6.527512   -1.65378 H        1 UNL1     0.0309
     121 H         -2.125747   4.8731   4.006672 H        1 UNL1     0.0524
     122 H         -2.627007   5.677096   2.513626 H        1 UNL1     0.0524
     123 H         -3.149633   4.003946   2.831702 H        1 UNL1     0.0524
@<TRIPOS>BOND
     1     1     2    1
     2     1    42    1
     3     2     3    2
     4     3     4    1
     5     4     5    2
     6     5     7    1
     7     6    75    1
     8     6    76    1
     9     6    77    1
    10     7     9   am
    11     9    10    1
    12    10    11    2
    13    10    43    1
    14    11    14    1
    15    11    15    1
    16    12    13   ar
    17    12    27   ar
    18    12    43    1
    19    13    14    1
    20    13    30   ar
    21    14    17    2
    22    15    16    1
    23    16    17    1
    24    16    18    1
    25    16    22    1
    26    18    19    1
    27    19    20    1
    28    20    21    1
    29    21    22    1
    30    23    24    1
    31    23    88    1
    32    23    89    1
    33    24    25    1
    34    24    26    1
    35    24    90    1
    36    25    91    1
    37    25    92    1
    38    25    93    1
    39    26    94    1
    40    26    95    1
    41    26    96    1
    42    27    28   ar
    43    28    29   ar
    44    29    30   ar
    45    29    31    1
    46    30    33    1
    47    31    32    1
    48    32    33    1
    49    32    35    1
    50    34    97    1
    51    34    98    1
    52    34    99    1
    53    35    61    1
    54    36    37    1
    55    36    60    1
    56    37    38    1
    57    38    39    1
    58    39    40    1
    59    40    41    1
    60    41    42    1
    61    45   100    1
    62    47   101    1
    63    47   102    1
    64    47   103    1
    65    48   104    1
    66    49   105    1
    67    49   106    1
    68    49   107    1
    69    50   108    1
    70    51    59    1
    71    52   109    1
    72    52   110    1
    73    52   111    1
    74    53    54    1
    75    54    55    2
    76    54    56    1
    77    56   112    1
    78    56   113    1
    79    56   114    1
    80    57   115    1
    81    57   116    1
    82    57   117    1
    83    58   118    1
    84    58   119    1
    85    58   120    1
    86    59   121    1
    87    59   122    1
    88    59   123    1
    89    60    61    2
    90     1    47    1
    91     1    62    1
    92     2    63    1
    93     3    64    1
    94     4    65    1
    95     5     6    1
    96     7     8    2
    97     9    78    1
    98    15    79    1
    99    18    80    1
   100    18    81    1
   101    19    82    1
   102    19    83    1
   103    20    23    1
   104    21    84    1
   105    21    85    1
   106    22    86    1
   107    22    87    1
   108    27    45    1
   109    28    34    1
   110    32    58    1
   111    33    46    2
   112    36    51    1
   113    36    66    1
   114    37    52    1
   115    37    67    1
   116    38    53    1
   117    38    68    1
   118    42    48    1
   119    42    72    1
   120    43    44    2
   121    60    73    1
   122    61    74    1
   123    39    69    1
   124    39    57    1
   125    40    70    1
   126    40    50    1
   127    41    71    1
   128    41    49    1
