@<TRIPOS>MOLECULE
*****
 123 128 0 0 0
SMALL
GASTEIGER

@<TRIPOS>ATOM
     1 C         -1.698854   -3.461171   -3.881316 C.3        1 UNL1     0.0009
     2 C         -1.25041   -4.308432   -5.468162 C.2        1 UNL1     -0.0787
     3 C         -1.378245   -4.433779   -6.904822 C.2        1 UNL1     -0.0649
     4 C         -0.517274   -5.459614   -7.940558 C.2        1 UNL1     -0.0542
     5 C         -0.120066   -5.689082   -9.280949 C.2        1 UNL1     0.0115
     6 C         -0.33939   -5.23817   -10.751289 C.3        1 UNL1     -0.0348
     7 C         1.107235   -6.683179   -9.568164 C.2        1 UNL1     0.2441
     8 O         0.955266   -7.83262   -9.958312 O.2        1 UNL1     -0.2702
     9 N         2.370628   -6.067256   -9.593254 N.am        1 UNL1     -0.2772
     10 C         2.910971   -6.028103   -8.328415 C.2        1 UNL1     0.1049
     11 C         2.513744   -5.032944   -7.556344 C.2        1 UNL1     0.0801
     12 C         3.371447   -7.450948   -6.32322 C.ar        1 UNL1     0.0753
     13 C         2.738908   -6.426904   -5.54873 C.ar        1 UNL1     0.0305
     14 C         2.407838   -5.125801   -6.125422 C.2        1 UNL1     0.0924
     15 N         1.823002   -3.922236   -7.865745 N.pl3        1 UNL1     -0.3170
     16 C         1.800249   -3.0798   -6.699538 C.3        1 UNL1     0.1275
     17 N         1.916673   -4.037714   -5.53912 N.2        1 UNL1     -0.2557
     18 C         3.089334   -2.263761   -6.706005 C.3        1 UNL1     0.0016
     19 C         3.181187   -1.510048   -8.023225 C.3        1 UNL1     0.0026
     20 N         2.014536   -0.647722   -8.151073 N.3        1 UNL1     -0.3018
     21 C         0.723329   -1.336116   -8.09391 C.3        1 UNL1     0.0026
     22 C         0.650614   -2.082738   -6.760807 C.3        1 UNL1     0.0016
     23 C         2.147996   0.327545   -9.21488 C.3        1 UNL1     0.0012
     24 C         3.580194   0.324136   -9.772153 C.3        1 UNL1     -0.0339
     25 C         4.091547   -1.10787   -10.000044 C.3        1 UNL1     -0.0615
     26 C         3.645735   1.150289   -11.044928 C.3        1 UNL1     -0.0615
     27 C         3.793062   -8.642286   -5.737495 C.ar        1 UNL1     0.1347
     28 C         3.672706   -8.906214   -4.384755 C.ar        1 UNL1     0.0342
     29 C         3.00294   -7.904293   -3.650771 C.ar        1 UNL1     0.1435
     30 C         2.542773   -6.721418   -4.23066 C.ar        1 UNL1     0.0774
     31 O         2.904497   -7.96362   -2.304741 O.3        1 UNL1     -0.4436
     32 C         2.614034   -6.61647   -1.902633 C.3        1 UNL1     0.3143
     33 C         1.999591   -5.962354   -3.123618 C.2        1 UNL1     0.2504
     34 C         4.322628   -10.04356   -3.647092 C.3        1 UNL1     -0.0327
     35 O         1.588656   -6.681751   -0.903838 O.2        1 UNL1     -0.4528
     36 C         2.15174   -3.689502   1.362761 C.3        1 UNL1     0.0854
     37 C         2.203445   -2.156691   0.994876 C.3        1 UNL1     0.0236
     38 C         1.187546   -1.229174   1.819136 C.3        1 UNL1     0.1131
     39 C         -0.341131   -1.625848   1.908959 C.3        1 UNL1     0.0200
     40 C         -1.156719   -2.158596   0.554916 C.3        1 UNL1     0.0661
     41 C         -1.17101   -1.396362   -0.960473 C.3        1 UNL1     0.0091
     42 C         -1.290792   -2.10547   -2.64814 C.3        1 UNL1     0.0661
     43 C         3.644481   -7.165661   -7.753718 C.2        1 UNL1     0.2131
     44 O         4.491131   -7.748488   -8.406584 O.2        1 UNL1     -0.2851
     45 O         4.358371   -9.605853   -6.570203 O.3        1 UNL1     -0.5056
     46 O         1.219853   -5.037351   -3.170855 O.2        1 UNL1     -0.2836
     47 C         -3.127338   -3.873538   -3.434809 C.3        1 UNL1     -0.0566
     48 O         -2.336583   -1.154614   -3.096817 O.3        1 UNL1     -0.3909
     49 C         -0.071505   -0.358388   -0.99502 C.3        1 UNL1     -0.0577
     50 O         -1.000561   -3.553927   0.392465 O.3        1 UNL1     -0.3910
     51 O         1.112548   -4.079759   2.23179 O.3        1 UNL1     -0.3753
     52 C         2.485497   -1.93273   -0.526715 C.3        1 UNL1     -0.0564
     53 O         1.492307   0.236555   1.713856 O.3        1 UNL1     -0.4608
     54 C         0.633718   1.195414   1.243383 C.2        1 UNL1     0.3042
     55 O         -0.08424   1.130705   0.246294 O.2        1 UNL1     -0.2512
     56 C         0.562099   2.41779   2.113659 C.3        1 UNL1     0.0332
     57 C         -0.549716   -2.436675   3.27176 C.3        1 UNL1     -0.0567
     58 C         3.975513   -5.94454   -1.608668 C.3        1 UNL1     0.0210
     59 C         1.402285   -3.924646   3.620264 C.3        1 UNL1     0.0372
     60 C         2.107225   -4.614659   0.197745 C.2        1 UNL1     -0.0208
     61 C         1.351116   -5.690898   -0.023058 C.2        1 UNL1     0.0882
     62 H         -1.002454   -4.123575   -3.35315 H        1 UNL1     0.0365
     63 H         -0.616288   -5.115708   -5.095785 H        1 UNL1     0.0576
     64 H         -1.962448   -3.721569   -7.491825 H        1 UNL1     0.0615
     65 H         -0.038681   -6.172012   -7.263122 H        1 UNL1     0.0622
     66 H         3.108959   -3.88494   1.86633 H        1 UNL1     0.0645
     67 H         3.177792   -1.819137   1.388912 H        1 UNL1     0.0362
     68 H         1.587108   -1.375596   2.834239 H        1 UNL1     0.0741
     69 H         -0.910499   -0.753451   2.200769 H        1 UNL1     0.0359
     70 H         -2.200959   -2.035521   0.900569 H        1 UNL1     0.0600
     71 H         -2.06891   -0.757702   -0.84713 H        1 UNL1     0.0348
     72 H         -1.663105   -2.882995   -1.965386 H        1 UNL1     0.0602
     73 H         2.902221   -4.379524   -0.465536 H        1 UNL1     0.0628
     74 H         0.482448   -5.967555   0.575367 H        1 UNL1     0.1022
     75 H         0.295131   -4.350209   -10.98781 H        1 UNL1     0.0279
     76 H         -0.04904   -5.946154   -11.524286 H        1 UNL1     0.0279
     77 H         -1.348193   -4.836751   -10.92702 H        1 UNL1     0.0279
     78 H         2.276422   -5.106507   -9.915997 H        1 UNL1     0.1553
     79 H         1.735889   -3.562203   -8.798333 H        1 UNL1     0.1484
     80 H         3.08189   -1.576794   -5.851143 H        1 UNL1     0.0317
     81 H         3.963291   -2.91177   -6.579771 H        1 UNL1     0.0317
     82 H         3.262537   -2.195462   -8.879673 H        1 UNL1     0.0428
     83 H         4.108343   -0.936304   -8.007413 H        1 UNL1     0.0428
     84 H         -0.136084   -0.658697   -8.111904 H        1 UNL1     0.0428
     85 H         0.568214   -1.987096   -8.965393 H        1 UNL1     0.0428
     86 H         -0.352388   -2.461846   -6.695601 H        1 UNL1     0.0317
     87 H         0.707242   -1.370302   -5.928747 H        1 UNL1     0.0317
     88 H         1.458181   0.04887   -10.022215 H        1 UNL1     0.0429
     89 H         1.857554   1.330143   -8.875447 H        1 UNL1     0.0429
     90 H         4.245105   0.82266   -9.056905 H        1 UNL1     0.0308
     91 H         4.940444   -1.121952   -10.690173 H        1 UNL1     0.0233
     92 H         4.390403   -1.566391   -9.054501 H        1 UNL1     0.0233
     93 H         3.322807   -1.762689   -10.42793 H        1 UNL1     0.0233
     94 H         2.637249   1.320305   -11.437213 H        1 UNL1     0.0233
     95 H         4.09454   2.125181   -10.83488 H        1 UNL1     0.0233
     96 H         4.236566   0.648533   -11.816374 H        1 UNL1     0.0233
     97 H         4.58967   -10.860233   -4.311144 H        1 UNL1     0.0280
     98 H         5.255681   -9.738561   -3.155518 H        1 UNL1     0.0280
     99 H         3.629428   -10.431968   -2.883085 H        1 UNL1     0.0280
     100 H         3.869653   -9.78027   -7.355286 H        1 UNL1     0.2922
     101 H         -3.438809   -3.262025   -2.588231 H        1 UNL1     0.0236
     102 H         -3.220417   -4.938784   -3.226075 H        1 UNL1     0.0236
     103 H         -3.879385   -3.673536   -4.216229 H        1 UNL1     0.0236
     104 H         -1.909247   -0.502728   -3.686222 H        1 UNL1     0.2098
     105 H         0.90335   -0.746113   -1.279868 H        1 UNL1     0.0234
     106 H         -0.306564   0.534872   -1.573605 H        1 UNL1     0.0234
     107 H         0.0   0.0   0.0 H        1 UNL1     0.0234
     108 H         -0.129968   -3.793658   0.764439 H        1 UNL1     0.2098
     109 H         2.492486   -2.875349   -1.091631 H        1 UNL1     0.0234
     110 H         1.787747   -1.230116   -0.994925 H        1 UNL1     0.0234
     111 H         3.471694   -1.479196   -0.693057 H        1 UNL1     0.0234
     112 H         0.911772   3.292269   1.556558 H        1 UNL1     0.0342
     113 H         -0.439421   2.581097   2.508793 H        1 UNL1     0.0342
     114 H         1.237117   2.270737   2.967997 H        1 UNL1     0.0342
     115 H         -0.436286   -3.519515   3.124177 H        1 UNL1     0.0234
     116 H         0.130991   -2.141354   4.072679 H        1 UNL1     0.0234
     117 H         -1.580166   -2.381726   3.663034 H        1 UNL1     0.0234
     118 H         4.259182   -6.030416   -0.545107 H        1 UNL1     0.0309
     119 H         4.789333   -6.333371   -2.228918 H        1 UNL1     0.0309
     120 H         3.95551   -4.86242   -1.778143 H        1 UNL1     0.0309
     121 H         0.531987   -3.466664   4.089509 H        1 UNL1     0.0524
     122 H         1.579497   -4.890946   4.121162 H        1 UNL1     0.0524
     123 H         2.275927   -3.292934   3.75362 H        1 UNL1     0.0524
@<TRIPOS>BOND
     1     1     2    1
     2     1    42    1
     3     2     3    2
     4     3     4    1
     5     4     5    2
     6     5     7    1
     7     6    75    1
     8     6    76    1
     9     6    77    1
    10     7     9   am
    11     9    10    1
    12    10    11    2
    13    10    43    1
    14    11    14    1
    15    11    15    1
    16    12    13   ar
    17    12    27   ar
    18    12    43    1
    19    13    14    1
    20    13    30   ar
    21    14    17    2
    22    15    16    1
    23    16    17    1
    24    16    18    1
    25    16    22    1
    26    18    19    1
    27    19    20    1
    28    20    21    1
    29    21    22    1
    30    23    24    1
    31    23    88    1
    32    23    89    1
    33    24    25    1
    34    24    26    1
    35    24    90    1
    36    25    91    1
    37    25    92    1
    38    25    93    1
    39    26    94    1
    40    26    95    1
    41    26    96    1
    42    27    28   ar
    43    28    29   ar
    44    29    30   ar
    45    29    31    1
    46    30    33    1
    47    31    32    1
    48    32    33    1
    49    32    35    1
    50    34    97    1
    51    34    98    1
    52    34    99    1
    53    35    61    1
    54    36    37    1
    55    36    60    1
    56    37    38    1
    57    38    39    1
    58    39    40    1
    59    40    41    1
    60    41    42    1
    61    45   100    1
    62    47   101    1
    63    47   102    1
    64    47   103    1
    65    48   104    1
    66    49   105    1
    67    49   106    1
    68    49   107    1
    69    50   108    1
    70    51    59    1
    71    52   109    1
    72    52   110    1
    73    52   111    1
    74    53    54    1
    75    54    55    2
    76    54    56    1
    77    56   112    1
    78    56   113    1
    79    56   114    1
    80    57   115    1
    81    57   116    1
    82    57   117    1
    83    58   118    1
    84    58   119    1
    85    58   120    1
    86    59   121    1
    87    59   122    1
    88    59   123    1
    89    60    61    2
    90     1    47    1
    91     1    62    1
    92     2    63    1
    93     3    64    1
    94     4    65    1
    95     5     6    1
    96     7     8    2
    97     9    78    1
    98    15    79    1
    99    18    80    1
   100    18    81    1
   101    19    82    1
   102    19    83    1
   103    20    23    1
   104    21    84    1
   105    21    85    1
   106    22    86    1
   107    22    87    1
   108    27    45    1
   109    28    34    1
   110    32    58    1
   111    33    46    2
   112    36    51    1
   113    36    66    1
   114    37    52    1
   115    37    67    1
   116    38    53    1
   117    38    68    1
   118    42    48    1
   119    42    72    1
   120    43    44    2
   121    60    73    1
   122    61    74    1
   123    39    69    1
   124    39    57    1
   125    40    70    1
   126    40    50    1
   127    41    71    1
   128    41    49    1
