@<TRIPOS>MOLECULE
*****
 123 128 0 0 0
SMALL
GASTEIGER

@<TRIPOS>ATOM
     1 C         -2.090552   -2.999163   3.325052 C.3        1 UNL1     0.0009
     2 C         -2.621971   -4.775178   3.34505 C.2        1 UNL1     -0.0787
     3 C         -3.66693   -5.772576   3.441502 C.2        1 UNL1     -0.0649
     4 C         -3.525837   -7.449115   3.252642 C.2        1 UNL1     -0.0542
     5 C         -4.226627   -8.649877   2.980352 C.2        1 UNL1     0.0115
     6 C         -5.641944   -9.271368   2.825591 C.3        1 UNL1     -0.0348
     7 C         -3.398936   -9.943557   2.513118 C.2        1 UNL1     0.2441
     8 O         -3.135905   -10.87237   3.264549 O.2        1 UNL1     -0.2702
     9 N         -3.222527   -10.059586   1.12331 N.am        1 UNL1     -0.2772
     10 C         -2.087209   -9.391411   0.725922 C.2        1 UNL1     0.1049
     11 C         -2.214034   -8.090727   0.535244 C.2        1 UNL1     0.0801
     12 C         0.341104   -9.115438   1.259282 C.ar        1 UNL1     0.0753
     13 C         0.103104   -7.704127   1.246407 C.ar        1 UNL1     0.0305
     14 C         -1.153713   -7.144578   0.754099 C.2        1 UNL1     0.0924
     15 N         -3.321298   -7.332403   0.461483 N.pl3        1 UNL1     -0.3170
     16 C         -2.92088   -6.006998   0.070051 C.3        1 UNL1     0.1275
     17 N         -1.506002   -5.874194   0.578189 N.2        1 UNL1     -0.2557
     18 C         -2.826918   -5.994233   -1.452681 C.3        1 UNL1     0.0016
     19 C         -4.162031   -6.441746   -2.026088 C.3        1 UNL1     0.0026
     20 N         -5.200162   -5.534112   -1.557565 N.3        1 UNL1     -0.3018
     21 C         -5.325776   -5.431439   -0.102214 C.3        1 UNL1     0.0026
     22 C         -3.974809   -4.976141   0.452303 C.3        1 UNL1     0.0016
     23 C         -6.449518   -5.687309   -2.276093 C.3        1 UNL1     0.0012
     24 C         -7.559044   -4.858381   -1.61007 C.3        1 UNL1     -0.0339
     25 C         -7.203149   -3.362873   -1.580873 C.3        1 UNL1     -0.0615
     26 C         -8.884237   -5.104059   -2.310274 C.3        1 UNL1     -0.0615
     27 C         1.583515   -9.634637   1.615602 C.ar        1 UNL1     0.1347
     28 C         2.671543   -8.843424   1.938446 C.ar        1 UNL1     0.0342
     29 C         2.400067   -7.458982   1.96648 C.ar        1 UNL1     0.1435
     30 C         1.150493   -6.926314   1.647027 C.ar        1 UNL1     0.0774
     31 O         3.383014   -6.551755   2.155586 O.3        1 UNL1     -0.4436
     32 C         2.839868   -5.319549   1.658058 C.3        1 UNL1     0.3143
     33 C         1.336086   -5.492534   1.728249 C.2        1 UNL1     0.2504
     34 C         4.091753   -9.314326   2.084577 C.3        1 UNL1     -0.0327
     35 O         3.185845   -4.292343   2.595288 O.2        1 UNL1     -0.4528
     36 C         3.492548   -1.096443   0.570383 C.3        1 UNL1     0.0854
     37 C         2.424608   -0.397847   -0.356434 C.3        1 UNL1     0.0236
     38 C         2.115912   1.134037   0.003819 C.3        1 UNL1     0.1131
     39 C         1.760215   1.53424   1.492304 C.3        1 UNL1     0.0200
     40 C         0.708543   0.600991   2.389784 C.3        1 UNL1     0.0661
     41 C         -0.821175   0.066321   1.888087 C.3        1 UNL1     0.0091
     42 C         -1.736184   -1.47128   2.292986 C.3        1 UNL1     0.0661
     43 C         -0.75235   -10.004465   0.794254 C.2        1 UNL1     0.2131
     44 O         -0.571481   -11.138299   0.388737 O.2        1 UNL1     -0.2851
     45 O         1.718456   -11.021096   1.646581 O.3        1 UNL1     -0.5056
     46 O         0.48429   -4.640365   1.847013 O.2        1 UNL1     -0.2836
     47 C         -2.133449   -2.407257   4.759551 C.3        1 UNL1     -0.0566
     48 O         -3.00794   -0.770566   2.594237 O.3        1 UNL1     -0.3909
     49 C         -0.944963   0.273229   0.394982 C.3        1 UNL1     -0.0577
     50 O         1.398375   -0.448347   3.038432 O.3        1 UNL1     -0.3910
     51 O         3.910631   -0.356191   1.694957 O.3        1 UNL1     -0.3753
     52 C         1.30049   -1.390374   -0.799377 C.3        1 UNL1     -0.0564
     53 O         1.382226   1.869593   -1.079226 O.3        1 UNL1     -0.4608
     54 C         0.242749   1.435011   -1.704255 C.2        1 UNL1     0.3042
     55 O         0.164395   0.768698   -2.735626 O.2        1 UNL1     -0.2512
     56 C         -1.019044   1.795261   -0.972947 C.3        1 UNL1     0.0332
     57 C         3.111024   2.021483   2.196636 C.3        1 UNL1     -0.0567
     58 C         3.262195   -5.223205   0.173509 C.3        1 UNL1     0.0210
     59 C         5.047728   0.477184   1.475044 C.3        1 UNL1     0.0372
     60 C         3.109283   -2.447245   1.063944 C.2        1 UNL1     -0.0208
     61 C         3.207633   -2.982759   2.28144 C.2        1 UNL1     0.0882
     62 H         -1.059012   -3.329688   3.153617 H        1 UNL1     0.0365
     63 H         -1.653735   -5.277943   3.297962 H        1 UNL1     0.0576
     64 H         -4.721916   -5.49357   3.489135 H        1 UNL1     0.0615
     65 H         -2.447873   -7.626581   3.297167 H        1 UNL1     0.0622
     66 H         4.364801   -1.249768   -0.080548 H        1 UNL1     0.0645
     67 H         2.938715   -0.295542   -1.32792 H        1 UNL1     0.0362
     68 H         3.10787   1.571317   -0.18678 H        1 UNL1     0.0741
     69 H         1.273593   2.500454   1.486098 H        1 UNL1     0.0359
     70 H         0.46476   1.314282   3.200245 H        1 UNL1     0.0600
     71 H         -1.450744   0.891719   2.274505 H        1 UNL1     0.0348
     72 H         -0.972242   -1.357935   3.075841 H        1 UNL1     0.0602
     73 H         2.824431   -3.052491   0.239454 H        1 UNL1     0.0628
     74 H         3.43631   -2.41895   3.186461 H        1 UNL1     0.1022
     75 H         -5.920902   -9.84434   3.742607 H        1 UNL1     0.0279
     76 H         -6.469934   -8.573296   2.724614 H        1 UNL1     0.0279
     77 H         -5.67915   -10.058593   2.058392 H        1 UNL1     0.0279
     78 H         -4.012306   -9.634939   0.641645 H        1 UNL1     0.1553
     79 H         -4.236953   -7.699982   0.278743 H        1 UNL1     0.1484
     80 H         -2.566641   -4.982461   -1.786355 H        1 UNL1     0.0317
     81 H         -2.025706   -6.654916   -1.800829 H        1 UNL1     0.0317
     82 H         -4.393673   -7.482121   -1.754291 H        1 UNL1     0.0428
     83 H         -4.072333   -6.427091   -3.11273 H        1 UNL1     0.0428
     84 H         -6.056882   -4.684919   0.223367 H        1 UNL1     0.0428
     85 H         -5.684896   -6.369002   0.344244 H        1 UNL1     0.0428
     86 H         -4.14013   -4.784257   1.496256 H        1 UNL1     0.0317
     87 H         -3.718374   -3.98839   0.050203 H        1 UNL1     0.0317
     88 H         -6.302792   -5.31689   -3.299106 H        1 UNL1     0.0429
     89 H         -6.737381   -6.74359   -2.354703 H        1 UNL1     0.0429
     90 H         -7.696388   -5.204825   -0.578893 H        1 UNL1     0.0308
     91 H         -6.134788   -3.204788   -1.756133 H        1 UNL1     0.0233
     92 H         -7.77497   -2.814948   -2.333474 H        1 UNL1     0.0233
     93 H         -7.439932   -2.895974   -0.617144 H        1 UNL1     0.0233
     94 H         -8.926211   -4.539686   -3.248121 H        1 UNL1     0.0233
     95 H         -8.988551   -6.165773   -2.550782 H        1 UNL1     0.0233
     96 H         -9.728309   -4.799096   -1.685368 H        1 UNL1     0.0233
     97 H         4.293255   -9.698479   3.080094 H        1 UNL1     0.0280
     98 H         4.329584   -10.132898   1.392745 H        1 UNL1     0.0280
     99 H         4.780385   -8.475407   1.891975 H        1 UNL1     0.0280
     100 H         1.536067   -11.450579   0.829329 H        1 UNL1     0.2922
     101 H         -3.125437   -2.003584   4.961208 H        1 UNL1     0.0236
     102 H         -1.348446   -1.674809   4.944682 H        1 UNL1     0.0236
     103 H         -1.983836   -3.180673   5.531326 H        1 UNL1     0.0236
     104 H         -3.058569   -0.65484   3.563265 H        1 UNL1     0.2098
     105 H         -1.69785   -0.347997   -0.08361 H        1 UNL1     0.0234
     106 H         -1.061337   1.31234   0.087358 H        1 UNL1     0.0234
     107 H         0.0   0.0   0.0 H        1 UNL1     0.0234
     108 H         0.89696   -0.668945   3.846942 H        1 UNL1     0.2098
     109 H         1.529676   -2.428874   -0.522425 H        1 UNL1     0.0234
     110 H         0.311   -1.118787   -0.41611 H        1 UNL1     0.0234
     111 H         1.171447   -1.395143   -1.889915 H        1 UNL1     0.0234
     112 H         -1.081797   2.880928   -0.851557 H        1 UNL1     0.0342
     113 H         -1.906069   1.40581   -1.470297 H        1 UNL1     0.0342
     114 H         -0.975034   1.346353   0.028905 H        1 UNL1     0.0342
     115 H         3.616869   1.199891   2.722276 H        1 UNL1     0.0234
     116 H         3.834037   2.466585   1.510207 H        1 UNL1     0.0234
     117 H         2.944069   2.732818   3.023721 H        1 UNL1     0.0234
     118 H         3.992395   -4.413035   0.001929 H        1 UNL1     0.0309
     119 H         3.668495   -6.160665   -0.21929 H        1 UNL1     0.0309
     120 H         2.428192   -4.955006   -0.484226 H        1 UNL1     0.0309
     121 H         4.893607   1.399544   2.034378 H        1 UNL1     0.0524
     122 H         5.980418   0.017892   1.842709 H        1 UNL1     0.0524
     123 H         5.155293   0.694483   0.416127 H        1 UNL1     0.0524
@<TRIPOS>BOND
     1     1     2    1
     2     1    42    1
     3     2     3    2
     4     3     4    1
     5     4     5    2
     6     5     7    1
     7     6    75    1
     8     6    76    1
     9     6    77    1
    10     7     9   am
    11     9    10    1
    12    10    11    2
    13    10    43    1
    14    11    14    1
    15    11    15    1
    16    12    13   ar
    17    12    27   ar
    18    12    43    1
    19    13    14    1
    20    13    30   ar
    21    14    17    2
    22    15    16    1
    23    16    17    1
    24    16    18    1
    25    16    22    1
    26    18    19    1
    27    19    20    1
    28    20    21    1
    29    21    22    1
    30    23    24    1
    31    23    88    1
    32    23    89    1
    33    24    25    1
    34    24    26    1
    35    24    90    1
    36    25    91    1
    37    25    92    1
    38    25    93    1
    39    26    94    1
    40    26    95    1
    41    26    96    1
    42    27    28   ar
    43    28    29   ar
    44    29    30   ar
    45    29    31    1
    46    30    33    1
    47    31    32    1
    48    32    33    1
    49    32    35    1
    50    34    97    1
    51    34    98    1
    52    34    99    1
    53    35    61    1
    54    36    37    1
    55    36    60    1
    56    37    38    1
    57    38    39    1
    58    39    40    1
    59    40    41    1
    60    41    42    1
    61    45   100    1
    62    47   101    1
    63    47   102    1
    64    47   103    1
    65    48   104    1
    66    49   105    1
    67    49   106    1
    68    49   107    1
    69    50   108    1
    70    51    59    1
    71    52   109    1
    72    52   110    1
    73    52   111    1
    74    53    54    1
    75    54    55    2
    76    54    56    1
    77    56   112    1
    78    56   113    1
    79    56   114    1
    80    57   115    1
    81    57   116    1
    82    57   117    1
    83    58   118    1
    84    58   119    1
    85    58   120    1
    86    59   121    1
    87    59   122    1
    88    59   123    1
    89    60    61    2
    90     1    47    1
    91     1    62    1
    92     2    63    1
    93     3    64    1
    94     4    65    1
    95     5     6    1
    96     7     8    2
    97     9    78    1
    98    15    79    1
    99    18    80    1
   100    18    81    1
   101    19    82    1
   102    19    83    1
   103    20    23    1
   104    21    84    1
   105    21    85    1
   106    22    86    1
   107    22    87    1
   108    27    45    1
   109    28    34    1
   110    32    58    1
   111    33    46    2
   112    36    51    1
   113    36    66    1
   114    37    52    1
   115    37    67    1
   116    38    53    1
   117    38    68    1
   118    42    48    1
   119    42    72    1
   120    43    44    2
   121    60    73    1
   122    61    74    1
   123    39    69    1
   124    39    57    1
   125    40    70    1
   126    40    50    1
   127    41    71    1
   128    41    49    1
