@<TRIPOS>MOLECULE
*****
 123 128 0 0 0
SMALL
GASTEIGER

@<TRIPOS>ATOM
     1 C         5.167338   1.748192   0.491639 C.3        1 UNL1     0.0009
     2 C         6.604022   2.554552   -0.358514 C.2        1 UNL1     -0.0787
     3 C         7.885843   2.456549   -1.02438 C.2        1 UNL1     -0.0649
     4 C         8.763327   3.691926   -1.779512 C.2        1 UNL1     -0.0542
     5 C         9.783304   3.98489   -2.718073 C.2        1 UNL1     0.0115
     6 C         10.911388   3.359726   -3.584051 C.3        1 UNL1     -0.0348
     7 C         9.878709   5.468395   -3.32396 C.2        1 UNL1     0.2441
     8 O         10.702683   6.289821   -2.946003 O.2        1 UNL1     -0.2702
     9 N         9.128414   5.675913   -4.494492 N.am        1 UNL1     -0.2772
     10 C         7.845752   6.062559   -4.180476 C.2        1 UNL1     0.1049
     11 C         6.999915   5.091087   -3.888888 C.2        1 UNL1     0.0801
     12 C         6.547589   7.668714   -2.768961 C.ar        1 UNL1     0.0753
     13 C         5.78848   6.540667   -2.32189 C.ar        1 UNL1     0.0305
     14 C         5.905263   5.23523   -2.967836 C.2        1 UNL1     0.0924
     15 N         7.122422   3.762167   -4.048546 N.pl3        1 UNL1     -0.3170
     16 C         5.852541   3.162961   -3.734526 C.3        1 UNL1     0.1275
     17 N         5.216288   4.117831   -2.754154 N.2        1 UNL1     -0.2557
     18 C         4.9996   3.222629   -4.998106 C.3        1 UNL1     0.0016
     19 C         5.754343   2.538955   -6.127063 C.3        1 UNL1     0.0026
     20 N         6.02441   1.16067   -5.741805 N.3        1 UNL1     -0.3018
     21 C         6.787849   0.999696   -4.502605 C.3        1 UNL1     0.0026
     22 C         6.009242   1.689803   -3.381259 C.3        1 UNL1     0.0016
     23 C         6.468769   0.341566   -6.851876 C.3        1 UNL1     0.0012
     24 C         5.31323   0.092592   -7.833964 C.3        1 UNL1     -0.0339
     25 C         5.348924   1.085232   -9.007612 C.3        1 UNL1     -0.0615
     26 C         5.342185   -1.346704   -8.31808 C.3        1 UNL1     -0.0615
     27 C         6.343067   8.936196   -2.228797 C.ar        1 UNL1     0.1347
     28 C         5.384103   9.205414   -1.268609 C.ar        1 UNL1     0.0342
     29 C         4.682491   8.070824   -0.808599 C.ar        1 UNL1     0.1435
     30 C         4.901797   6.788992   -1.314595 C.ar        1 UNL1     0.0774
     31 O         3.641575   8.184112   0.045021 O.3        1 UNL1     -0.4436
     32 C         2.919792   6.951406   -0.097598 C.3        1 UNL1     0.3143
     33 C         3.932971   5.958446   -0.630244 C.2        1 UNL1     0.2504
     34 C         4.937404   10.571367   -0.827327 C.3        1 UNL1     -0.0327
     35 O         2.559228   6.514185   1.218488 O.2        1 UNL1     -0.4528
     36 C         -0.683998   4.582411   0.821215 C.3        1 UNL1     0.0854
     37 C         -0.989474   3.322224   -0.076634 C.3        1 UNL1     0.0236
     38 C         -1.59006   2.060899   0.71083 C.3        1 UNL1     0.1131
     39 C         -0.864234   1.52937   2.011954 C.3        1 UNL1     0.0200
     40 C         0.79695   1.383681   2.052922 C.3        1 UNL1     0.0661
     41 C         1.756162   0.61526   0.883712 C.3        1 UNL1     0.0091
     42 C         3.46373   0.97792   0.319713 C.3        1 UNL1     0.0661
     43 C         7.497521   7.461401   -3.890082 C.2        1 UNL1     0.2131
     44 O         7.897412   8.359744   -4.608277 O.2        1 UNL1     -0.2851
     45 O         7.155374   9.97143   -2.68693 O.3        1 UNL1     -0.5056
     46 O         3.948878   4.754857   -0.499962 O.2        1 UNL1     -0.2836
     47 C         5.563791   1.318095   1.929632 C.3        1 UNL1     -0.0566
     48 O         3.912192   -0.433254   0.400882 O.3        1 UNL1     -0.3909
     49 C         0.92185   0.383242   -0.356282 C.3        1 UNL1     -0.0577
     50 O         1.397277   2.601336   2.446174 O.3        1 UNL1     -0.3910
     51 O         -0.80798   4.392178   2.212571 O.3        1 UNL1     -0.3753
     52 C         0.054869   3.162141   -1.229314 C.3        1 UNL1     -0.0564
     53 O         -2.192822   1.022329   -0.189379 O.3        1 UNL1     -0.4608
     54 C         -2.427305   -0.284543   0.149788 C.2        1 UNL1     0.3042
     55 O         -1.858323   -1.283539   -0.28851 O.2        1 UNL1     -0.2512
     56 C         -3.467242   -0.450542   1.22109 C.3        1 UNL1     0.0332
     57 C         -1.585099   2.197907   3.273535 C.3        1 UNL1     -0.0567
     58 C         1.84452   7.197022   -1.18157 C.3        1 UNL1     0.0210
     59 C         -1.121019   5.570908   2.953158 C.3        1 UNL1     0.0372
     60 C         0.645027   5.211484   0.590736 C.2        1 UNL1     -0.0208
     61 C         1.558074   5.646293   1.460236 C.2        1 UNL1     0.0882
     62 H         4.691504   2.732367   0.579348 H        1 UNL1     0.0365
     63 H         6.337868   3.608329   -0.25276 H        1 UNL1     0.0576
     64 H         8.3434   1.489752   -1.245859 H        1 UNL1     0.0615
     65 H         8.276349   4.607221   -1.43228 H        1 UNL1     0.0622
     66 H         -1.428617   5.329124   0.511361 H        1 UNL1     0.0645
     67 H         -1.855053   3.631904   -0.687723 H        1 UNL1     0.0362
     68 H         -2.537063   2.497709   1.06283 H        1 UNL1     0.0741
     69 H         -1.19582   0.51822   2.20698 H        1 UNL1     0.0359
     70 H         0.908754   0.722987   2.933856 H        1 UNL1     0.0600
     71 H         1.799703   -0.40608   1.31024 H        1 UNL1     0.0348
     72 H         3.357978   1.46574   1.299592 H        1 UNL1     0.0602
     73 H         0.762842   5.409139   -0.445748 H        1 UNL1     0.0628
     74 H         1.540612   5.435202   2.52999 H        1 UNL1     0.1022
     75 H         10.955795   2.254382   -3.43148 H        1 UNL1     0.0279
     76 H         10.797662   3.442955   -4.662572 H        1 UNL1     0.0279
     77 H         11.916519   3.664218   -3.257403 H        1 UNL1     0.0279
     78 H         9.066293   4.806179   -5.019641 H        1 UNL1     0.1553
     79 H         7.787599   3.334369   -4.666171 H        1 UNL1     0.1484
     80 H         4.038298   2.731695   -4.804076 H        1 UNL1     0.0317
     81 H         4.77305   4.259508   -5.268675 H        1 UNL1     0.0317
     82 H         6.685026   3.07028   -6.374925 H        1 UNL1     0.0428
     83 H         5.129111   2.594504   -7.018718 H        1 UNL1     0.0428
     84 H         6.908114   -0.043389   -4.193863 H        1 UNL1     0.0428
     85 H         7.817962   1.367687   -4.606375 H        1 UNL1     0.0428
     86 H         6.525731   1.439037   -2.473325 H        1 UNL1     0.0317
     87 H         5.02977   1.212196   -3.256266 H        1 UNL1     0.0317
     88 H         7.264826   0.883508   -7.379026 H        1 UNL1     0.0429
     89 H         6.901322   -0.604381   -6.501366 H        1 UNL1     0.0429
     90 H         4.360258   0.211534   -7.3049 H        1 UNL1     0.0308
     91 H         6.302039   1.034589   -9.542505 H        1 UNL1     0.0233
     92 H         4.53395   0.8856   -9.707307 H        1 UNL1     0.0233
     93 H         5.222909   2.124221   -8.679808 H        1 UNL1     0.0233
     94 H         4.647606   -1.477784   -9.154868 H        1 UNL1     0.0233
     95 H         6.345637   -1.602547   -8.669633 H        1 UNL1     0.0233
     96 H         5.059274   -2.041218   -7.522102 H        1 UNL1     0.0233
     97 H         4.137838   10.521497   -0.094226 H        1 UNL1     0.0280
     98 H         5.747824   11.137674   -0.350073 H        1 UNL1     0.0280
     99 H         4.572496   11.139651   -1.698528 H        1 UNL1     0.0280
     100 H         6.688385   10.722728   -3.008013 H        1 UNL1     0.2922
     101 H         4.700992   0.884325   2.434685 H        1 UNL1     0.0236
     102 H         6.014691   2.123177   2.508869 H        1 UNL1     0.0236
     103 H         6.319977   0.515366   1.928144 H        1 UNL1     0.0236
     104 H         4.331484   -0.559711   1.27448 H        1 UNL1     0.2098
     105 H         0.709219   1.282315   -0.929228 H        1 UNL1     0.0234
     106 H         1.291113   -0.404552   -1.012752 H        1 UNL1     0.0234
     107 H         0.0   -0.0   0.0 H        1 UNL1     0.0234
     108 H         1.199311   3.259691   1.752527 H        1 UNL1     0.2098
     109 H         1.079732   3.048437   -0.849263 H        1 UNL1     0.0234
     110 H         -0.177704   2.335325   -1.909041 H        1 UNL1     0.0234
     111 H         0.076066   4.045208   -1.881763 H        1 UNL1     0.0234
     112 H         -3.599667   -1.512365   1.44987 H        1 UNL1     0.0342
     113 H         -3.22399   0.115254   2.11917 H        1 UNL1     0.0342
     114 H         -4.421894   -0.067652   0.834825 H        1 UNL1     0.0342
     115 H         -2.654738   1.949699   3.311647 H        1 UNL1     0.0234
     116 H         -1.148569   1.917738   4.234262 H        1 UNL1     0.0234
     117 H         -1.623617   3.299785   3.22534 H        1 UNL1     0.0234
     118 H         0.943524   7.683836   -0.768987 H        1 UNL1     0.0309
     119 H         2.213852   7.785306   -2.027571 H        1 UNL1     0.0309
     120 H         1.455836   6.265258   -1.606831 H        1 UNL1     0.0309
     121 H         -0.299929   6.274064   2.816265 H        1 UNL1     0.0524
     122 H         -2.040813   6.060162   2.591706 H        1 UNL1     0.0524
     123 H         -1.238906   5.332766   4.006479 H        1 UNL1     0.0524
@<TRIPOS>BOND
     1     1     2    1
     2     1    42    1
     3     2     3    2
     4     3     4    1
     5     4     5    2
     6     5     7    1
     7     6    75    1
     8     6    76    1
     9     6    77    1
    10     7     9   am
    11     9    10    1
    12    10    11    2
    13    10    43    1
    14    11    14    1
    15    11    15    1
    16    12    13   ar
    17    12    27   ar
    18    12    43    1
    19    13    14    1
    20    13    30   ar
    21    14    17    2
    22    15    16    1
    23    16    17    1
    24    16    18    1
    25    16    22    1
    26    18    19    1
    27    19    20    1
    28    20    21    1
    29    21    22    1
    30    23    24    1
    31    23    88    1
    32    23    89    1
    33    24    25    1
    34    24    26    1
    35    24    90    1
    36    25    91    1
    37    25    92    1
    38    25    93    1
    39    26    94    1
    40    26    95    1
    41    26    96    1
    42    27    28   ar
    43    28    29   ar
    44    29    30   ar
    45    29    31    1
    46    30    33    1
    47    31    32    1
    48    32    33    1
    49    32    35    1
    50    34    97    1
    51    34    98    1
    52    34    99    1
    53    35    61    1
    54    36    37    1
    55    36    60    1
    56    37    38    1
    57    38    39    1
    58    39    40    1
    59    40    41    1
    60    41    42    1
    61    45   100    1
    62    47   101    1
    63    47   102    1
    64    47   103    1
    65    48   104    1
    66    49   105    1
    67    49   106    1
    68    49   107    1
    69    50   108    1
    70    51    59    1
    71    52   109    1
    72    52   110    1
    73    52   111    1
    74    53    54    1
    75    54    55    2
    76    54    56    1
    77    56   112    1
    78    56   113    1
    79    56   114    1
    80    57   115    1
    81    57   116    1
    82    57   117    1
    83    58   118    1
    84    58   119    1
    85    58   120    1
    86    59   121    1
    87    59   122    1
    88    59   123    1
    89    60    61    2
    90     1    47    1
    91     1    62    1
    92     2    63    1
    93     3    64    1
    94     4    65    1
    95     5     6    1
    96     7     8    2
    97     9    78    1
    98    15    79    1
    99    18    80    1
   100    18    81    1
   101    19    82    1
   102    19    83    1
   103    20    23    1
   104    21    84    1
   105    21    85    1
   106    22    86    1
   107    22    87    1
   108    27    45    1
   109    28    34    1
   110    32    58    1
   111    33    46    2
   112    36    51    1
   113    36    66    1
   114    37    52    1
   115    37    67    1
   116    38    53    1
   117    38    68    1
   118    42    48    1
   119    42    72    1
   120    43    44    2
   121    60    73    1
   122    61    74    1
   123    39    69    1
   124    39    57    1
   125    40    70    1
   126    40    50    1
   127    41    71    1
   128    41    49    1
