@<TRIPOS>MOLECULE
*****
 123 128 0 0 0
SMALL
GASTEIGER

@<TRIPOS>ATOM
     1 C         -3.380571   -0.334001   2.34638 C.3        1 UNL1     0.0009
     2 C         -4.476058   -1.81353   2.565322 C.2        1 UNL1     -0.0787
     3 C         -5.653675   -2.570204   2.195581 C.2        1 UNL1     -0.0649
     4 C         -6.122107   -4.10117   2.746103 C.2        1 UNL1     -0.0542
     5 C         -6.923088   -5.23771   2.474474 C.2        1 UNL1     0.0115
     6 C         -8.0494   -5.79152   1.55903 C.3        1 UNL1     -0.0348
     7 C         -6.597823   -6.615989   3.230476 C.2        1 UNL1     0.2441
     8 O         -7.249961   -7.02292   4.182132 O.2        1 UNL1     -0.2702
     9 N         -5.681409   -7.44992   2.566477 N.am        1 UNL1     -0.2772
     10 C         -4.392923   -7.134615   2.932137 C.2        1 UNL1     0.1049
     11 C         -3.836915   -6.122865   2.290702 C.2        1 UNL1     0.0801
     12 C         -2.943188   -6.716521   4.927332 C.ar        1 UNL1     0.0753
     13 C         -2.52622   -5.51308   4.27428 C.ar        1 UNL1     0.0305
     14 C         -2.860754   -5.245189   2.877364 C.2        1 UNL1     0.0924
     15 N         -4.242372   -5.472469   1.186565 N.pl3        1 UNL1     -0.3170
     16 C         -3.193904   -4.565758   0.800762 C.3        1 UNL1     0.1275
     17 N         -2.480231   -4.242551   2.090697 N.2        1 UNL1     -0.2557
     18 C         -2.201096   -5.356493   -0.045861 C.3        1 UNL1     0.0016
     19 C         -2.948168   -5.984816   -1.211487 C.3        1 UNL1     0.0026
     20 N         -3.574645   -4.92598   -1.99086 N.3        1 UNL1     -0.3018
     21 C         -4.501464   -4.071081   -1.246198 C.3        1 UNL1     0.0026
     22 C         -3.728936   -3.446661   -0.082929 C.3        1 UNL1     0.0016
     23 C         -4.055768   -5.383331   -3.279267 C.3        1 UNL1     0.0012
     24 C         -5.585647   -5.528056   -3.262501 C.3        1 UNL1     -0.0339
     25 C         -6.274808   -4.281689   -3.841882 C.3        1 UNL1     -0.0615
     26 C         -5.997588   -6.789148   -4.001914 C.3        1 UNL1     -0.0615
     27 C         -2.519694   -7.020764   6.218923 C.ar        1 UNL1     0.1347
     28 C         -1.650429   -6.22152   6.939781 C.ar        1 UNL1     0.0342
     29 C         -1.292059   -5.018179   6.295804 C.ar        1 UNL1     0.1435
     30 C         -1.737349   -4.682875   5.016543 C.ar        1 UNL1     0.0774
     31 O         -0.366569   -4.186143   6.821341 O.3        1 UNL1     -0.4436
     32 C         0.062932   -3.376948   5.716078 C.3        1 UNL1     0.3143
     33 C         -1.078536   -3.427789   4.72075 C.2        1 UNL1     0.2504
     34 C         -0.958268   -6.601848   8.218986 C.3        1 UNL1     -0.0327
     35 O         0.147625   -2.025606   6.18507 O.2        1 UNL1     -0.4528
     36 C         2.88057   -0.379643   4.128397 C.3        1 UNL1     0.0854
     37 C         2.995084   -0.228603   2.56264 C.3        1 UNL1     0.0236
     38 C         3.186296   1.275733   2.040952 C.3        1 UNL1     0.1131
     39 C         2.202561   2.410247   2.538357 C.3        1 UNL1     0.0200
     40 C         0.560624   2.128137   2.621388 C.3        1 UNL1     0.0661
     41 C         -0.398393   1.470941   1.386078 C.3        1 UNL1     0.0091
     42 C         -1.89308   0.411128   1.476142 C.3        1 UNL1     0.0661
     43 C         -3.769591   -7.673272   4.150193 C.2        1 UNL1     0.2131
     44 O         -3.859483   -8.857596   4.418583 O.2        1 UNL1     -0.2851
     45 O         -3.008075   -8.189492   6.799437 O.3        1 UNL1     -0.5056
     46 O         -1.387927   -2.606788   3.886431 O.2        1 UNL1     -0.2836
     47 C         -4.039877   0.922941   2.975183 C.3        1 UNL1     -0.0566
     48 O         -2.66182   1.215521   0.495781 O.3        1 UNL1     -0.3909
     49 C         0.506163   0.869534   0.333661 C.3        1 UNL1     -0.0577
     50 O         0.213955   1.547902   3.862706 O.3        1 UNL1     -0.3910
     51 O         2.784693   0.822863   4.85793 O.3        1 UNL1     -0.3753
     52 C         2.092363   -1.260626   1.810993 C.3        1 UNL1     -0.0564
     53 O         3.639199   1.363122   0.612818 O.3        1 UNL1     -0.4608
     54 C         4.838591   1.872626   0.188796 C.2        1 UNL1     0.3042
     55 O         5.044665   2.974856   -0.317623 O.2        1 UNL1     -0.2512
     56 C         6.00433   0.961051   0.447248 C.3        1 UNL1     0.0332
     57 C         2.897084   3.140352   3.780435 C.3        1 UNL1     -0.0567
     58 C         1.291109   -4.089571   5.103478 C.3        1 UNL1     0.0210
     59 C         3.990183   1.22993   5.503653 C.3        1 UNL1     0.0372
     60 C         1.771616   -1.255129   4.59627 C.2        1 UNL1     -0.0208
     61 C         0.8836   -1.076707   5.575218 C.2        1 UNL1     0.0882
     62 H         -2.704856   -0.745897   3.105631 H        1 UNL1     0.0365
     63 H         -3.98886   -2.304308   3.410453 H        1 UNL1     0.0576
     64 H         -6.291238   -2.26608   1.362437 H        1 UNL1     0.0615
     65 H         -5.483553   -4.271523   3.617144 H        1 UNL1     0.0622
     66 H         3.809883   -0.885712   4.425579 H        1 UNL1     0.0645
     67 H         3.977357   -0.670956   2.321763 H        1 UNL1     0.0362
     68 H         4.157733   1.508619   2.503116 H        1 UNL1     0.0741
     69 H         2.265001   3.248335   1.857095 H        1 UNL1     0.0359
     70 H         0.191484   3.169331   2.69004 H        1 UNL1     0.0600
     71 H         -0.728899   2.400608   0.882646 H        1 UNL1     0.0348
     72 H         -1.799206   0.887505   2.462838 H        1 UNL1     0.0602
     73 H         1.831392   -2.19081   4.098099 H        1 UNL1     0.0628
     74 H         0.719766   -0.13186   6.094505 H        1 UNL1     0.1022
     75 H         -8.888546   -6.199124   2.172811 H        1 UNL1     0.0279
     76 H         -8.554783   -5.069965   0.921051 H        1 UNL1     0.0279
     77 H         -7.739386   -6.683916   0.995806 H        1 UNL1     0.0279
     78 H         -5.757553   -7.309727   1.561178 H        1 UNL1     0.1553
     79 H         -4.906973   -5.844696   0.533353 H        1 UNL1     0.1484
     80 H         -1.410638   -4.680811   -0.394281 H        1 UNL1     0.0317
     81 H         -1.709611   -6.132763   0.550375 H        1 UNL1     0.0317
     82 H         -3.693107   -6.718391   -0.869657 H        1 UNL1     0.0428
     83 H         -2.221947   -6.545273   -1.801011 H        1 UNL1     0.0428
     84 H         -4.896513   -3.23638   -1.833584 H        1 UNL1     0.0428
     85 H         -5.397858   -4.620615   -0.927124 H        1 UNL1     0.0428
     86 H         -4.397301   -2.72985   0.35691 H        1 UNL1     0.0317
     87 H         -2.90935   -2.827117   -0.46704 H        1 UNL1     0.0317
     88 H         -3.784062   -4.631548   -4.03179 H        1 UNL1     0.0429
     89 H         -3.5723   -6.323421   -3.574673 H        1 UNL1     0.0429
     90 H         -5.922259   -5.663992   -2.227886 H        1 UNL1     0.0308
     91 H         -7.360649   -4.409984   -3.881769 H        1 UNL1     0.0233
     92 H         -6.039837   -3.397576   -3.244604 H        1 UNL1     0.0233
     93 H         -5.9432   -4.05783   -4.863038 H        1 UNL1     0.0233
     94 H         -5.234266   -7.061271   -4.738883 H        1 UNL1     0.0233
     95 H         -6.097253   -7.619645   -3.297425 H        1 UNL1     0.0233
     96 H         -6.948881   -6.652948   -4.523891 H        1 UNL1     0.0233
     97 H         -0.929379   -7.677888   8.362283 H        1 UNL1     0.0280
     98 H         0.087341   -6.267839   8.238875 H        1 UNL1     0.0280
     99 H         -1.490427   -6.153548   9.073929 H        1 UNL1     0.0280
     100 H         -3.84097   -8.473775   6.466131 H        1 UNL1     0.2922
     101 H         -5.12164   0.870187   2.854099 H        1 UNL1     0.0236
     102 H         -3.630738   1.857829   2.59364 H        1 UNL1     0.0236
     103 H         -3.882363   0.971545   4.065605 H        1 UNL1     0.0236
     104 H         -2.05693   1.889223   0.128079 H        1 UNL1     0.2098
     105 H         0.676381   1.507449   -0.529994 H        1 UNL1     0.0234
     106 H         1.453396   0.485991   0.71257 H        1 UNL1     0.0234
     107 H         0.0   -0.0   0.0 H        1 UNL1     0.0234
     108 H         0.14204   2.273685   4.512195 H        1 UNL1     0.2098
     109 H         1.056636   -1.252434   2.1783 H        1 UNL1     0.0234
     110 H         2.09677   -1.124974   0.724107 H        1 UNL1     0.0234
     111 H         2.449726   -2.289347   1.952318 H        1 UNL1     0.0234
     112 H         6.929822   1.434421   0.10559 H        1 UNL1     0.0342
     113 H         6.075796   0.674731   1.495464 H        1 UNL1     0.0342
     114 H         5.858959   0.043444   -0.139292 H        1 UNL1     0.0342
     115 H         2.655908   4.211831   3.811368 H        1 UNL1     0.0234
     116 H         2.631004   2.71575   4.750468 H        1 UNL1     0.0234
     117 H         3.998172   3.171632   3.712841 H        1 UNL1     0.0234
     118 H         1.152441   -4.305076   4.029544 H        1 UNL1     0.0309
     119 H         2.223319   -3.53217   5.23946 H        1 UNL1     0.0309
     120 H         1.463436   -5.079645   5.539555 H        1 UNL1     0.0309
     121 H         4.162437   2.275858   5.251226 H        1 UNL1     0.0524
     122 H         3.920432   1.160648   6.602002 H        1 UNL1     0.0524
     123 H         4.822773   0.620355   5.164085 H        1 UNL1     0.0524
@<TRIPOS>BOND
     1     1     2    1
     2     1    42    1
     3     2     3    2
     4     3     4    1
     5     4     5    2
     6     5     7    1
     7     6    75    1
     8     6    76    1
     9     6    77    1
    10     7     9   am
    11     9    10    1
    12    10    11    2
    13    10    43    1
    14    11    14    1
    15    11    15    1
    16    12    13   ar
    17    12    27   ar
    18    12    43    1
    19    13    14    1
    20    13    30   ar
    21    14    17    2
    22    15    16    1
    23    16    17    1
    24    16    18    1
    25    16    22    1
    26    18    19    1
    27    19    20    1
    28    20    21    1
    29    21    22    1
    30    23    24    1
    31    23    88    1
    32    23    89    1
    33    24    25    1
    34    24    26    1
    35    24    90    1
    36    25    91    1
    37    25    92    1
    38    25    93    1
    39    26    94    1
    40    26    95    1
    41    26    96    1
    42    27    28   ar
    43    28    29   ar
    44    29    30   ar
    45    29    31    1
    46    30    33    1
    47    31    32    1
    48    32    33    1
    49    32    35    1
    50    34    97    1
    51    34    98    1
    52    34    99    1
    53    35    61    1
    54    36    37    1
    55    36    60    1
    56    37    38    1
    57    38    39    1
    58    39    40    1
    59    40    41    1
    60    41    42    1
    61    45   100    1
    62    47   101    1
    63    47   102    1
    64    47   103    1
    65    48   104    1
    66    49   105    1
    67    49   106    1
    68    49   107    1
    69    50   108    1
    70    51    59    1
    71    52   109    1
    72    52   110    1
    73    52   111    1
    74    53    54    1
    75    54    55    2
    76    54    56    1
    77    56   112    1
    78    56   113    1
    79    56   114    1
    80    57   115    1
    81    57   116    1
    82    57   117    1
    83    58   118    1
    84    58   119    1
    85    58   120    1
    86    59   121    1
    87    59   122    1
    88    59   123    1
    89    60    61    2
    90     1    47    1
    91     1    62    1
    92     2    63    1
    93     3    64    1
    94     4    65    1
    95     5     6    1
    96     7     8    2
    97     9    78    1
    98    15    79    1
    99    18    80    1
   100    18    81    1
   101    19    82    1
   102    19    83    1
   103    20    23    1
   104    21    84    1
   105    21    85    1
   106    22    86    1
   107    22    87    1
   108    27    45    1
   109    28    34    1
   110    32    58    1
   111    33    46    2
   112    36    51    1
   113    36    66    1
   114    37    52    1
   115    37    67    1
   116    38    53    1
   117    38    68    1
   118    42    48    1
   119    42    72    1
   120    43    44    2
   121    60    73    1
   122    61    74    1
   123    39    69    1
   124    39    57    1
   125    40    70    1
   126    40    50    1
   127    41    71    1
   128    41    49    1
