@<TRIPOS>MOLECULE
*****
 123 128 0 0 0
SMALL
GASTEIGER

@<TRIPOS>ATOM
     1 C         -0.953835   1.577257   3.888406 C.3        1 UNL1     0.0009
     2 C         -0.470333   1.028436   5.591949 C.2        1 UNL1     -0.0787
     3 C         -0.68941   0.188076   6.75033 C.2        1 UNL1     -0.0649
     4 C         0.280365   0.045348   8.130736 C.2        1 UNL1     -0.0542
     5 C         0.602665   -0.769341   9.244056 C.2        1 UNL1     0.0115
     6 C         0.168409   -2.023933   10.050743 C.3        1 UNL1     -0.0348
     7 C         1.985452   -0.514665   10.018673 C.2        1 UNL1     0.2441
     8 O         2.050498   0.078714   11.086472 O.2        1 UNL1     -0.2702
     9 N         3.081051   -1.242632   9.522812 N.am        1 UNL1     -0.2772
     10 C         3.705483   -0.543864   8.515275 C.2        1 UNL1     0.1049
     11 C         3.171279   -0.654577   7.312532 C.2        1 UNL1     0.0801
     12 C         4.627605   1.709274   7.940476 C.ar        1 UNL1     0.0753
     13 C         3.858425   1.630113   6.736024 C.ar        1 UNL1     0.0305
     14 C         3.209087   0.387982   6.32308 C.2        1 UNL1     0.0924
     15 N         2.235256   -1.505368   6.858061 N.pl3        1 UNL1     -0.3170
     16 C         2.131488   -1.324869   5.434367 C.3        1 UNL1     0.1275
     17 N         2.547872   0.107316   5.203728 N.2        1 UNL1     -0.2557
     18 C         3.210848   -2.18883   4.789189 C.3        1 UNL1     0.0016
     19 C         3.027585   -3.624455   5.255002 C.3        1 UNL1     0.0026
     20 N         1.696915   -4.074658   4.870733 N.3        1 UNL1     -0.3018
     21 C         0.592466   -3.267599   5.393434 C.3        1 UNL1     0.0026
     22 C         0.79418   -1.830565   4.909554 C.3        1 UNL1     0.0016
     23 C         1.528168   -5.508551   4.997693 C.3        1 UNL1     0.0012
     24 C         1.148589   -5.880633   6.439647 C.3        1 UNL1     -0.0339
     25 C         -0.372352   -6.042008   6.596986 C.3        1 UNL1     -0.0615
     26 C         1.890936   -7.135057   6.866405 C.3        1 UNL1     -0.0615
     27 C         5.342339   2.859594   8.266112 C.ar        1 UNL1     0.1347
     28 C         5.396075   3.975307   7.449811 C.ar        1 UNL1     0.0342
     29 C         4.591975   3.89295   6.293176 C.ar        1 UNL1     0.1435
     30 C         3.842027   2.760844   5.972027 C.ar        1 UNL1     0.0774
     31 O         4.622692   4.853397   5.343647 O.3        1 UNL1     -0.4436
     32 C         4.085791   4.221893   4.17155 C.3        1 UNL1     0.3143
     33 C         3.244625   3.073275   4.690519 C.2        1 UNL1     0.2504
     34 C         6.334288   5.139263   7.608128 C.3        1 UNL1     -0.0327
     35 O         3.186348   5.15439   3.559418 O.2        1 UNL1     -0.4528
     36 C         3.285786   4.407288   -0.160802 C.3        1 UNL1     0.0854
     37 C         2.977036   3.056608   -0.914366 C.3        1 UNL1     0.0236
     38 C         1.859641   3.161908   -2.059829 C.3        1 UNL1     0.1131
     39 C         0.464438   3.83347   -1.736282 C.3        1 UNL1     0.0200
     40 C         -0.329791   3.486832   -0.310982 C.3        1 UNL1     0.0661
     41 C         -0.634933   1.935879   0.304683 C.3        1 UNL1     0.0091
     42 C         -0.742499   1.343335   2.03752 C.3        1 UNL1     0.0661
     43 C         4.711307   0.493689   8.787593 C.2        1 UNL1     0.2131
     44 O         5.604737   0.292858   9.590205 O.2        1 UNL1     -0.2851
     45 O         6.02823   2.871228   9.4789 O.3        1 UNL1     -0.5056
     46 O         2.283896   2.548896   4.172947 O.2        1 UNL1     -0.2836
     47 C         -2.218013   2.476173   3.94994 C.3        1 UNL1     -0.0566
     48 O         -2.001623   0.590165   1.821977 O.3        1 UNL1     -0.3909
     49 C         0.210074   0.935483   -0.452063 C.3        1 UNL1     -0.0577
     50 O         0.106983   4.341293   0.726731 O.3        1 UNL1     -0.3910
     51 O         2.431458   5.488317   -0.459019 O.3        1 UNL1     -0.3753
     52 C         3.074932   1.822171   0.040376 C.3        1 UNL1     -0.0564
     53 O         1.83372   1.979735   -2.984016 O.3        1 UNL1     -0.4608
     54 C         1.807882   2.040953   -4.35278 C.2        1 UNL1     0.3042
     55 O         0.850646   2.330507   -5.069506 O.2        1 UNL1     -0.2512
     56 C         3.139617   1.768336   -4.992214 C.3        1 UNL1     0.0332
     57 C         0.550176   5.365332   -2.188191 C.3        1 UNL1     -0.0567
     58 C         5.291843   3.645464   3.393926 C.3        1 UNL1     0.0210
     59 C         2.981471   6.459402   -1.348032 C.3        1 UNL1     0.0372
     60 C         3.341891   4.301101   1.322686 C.2        1 UNL1     -0.0208
     61 C         2.817662   5.084876   2.265886 C.2        1 UNL1     0.0882
     62 H         -0.089725   2.252517   3.881483 H        1 UNL1     0.0365
     63 H         0.350993   1.716706   5.802134 H        1 UNL1     0.0576
     64 H         -1.459965   -0.586061   6.758415 H        1 UNL1     0.0615
     65 H         0.955831   0.902574   8.064461 H        1 UNL1     0.0622
     66 H         4.301728   4.676699   -0.482246 H        1 UNL1     0.0645
     67 H         3.886346   2.868794   -1.511393 H        1 UNL1     0.0362
     68 H         2.365656   3.857014   -2.747069 H        1 UNL1     0.0741
     69 H         -0.251637   3.527374   -2.487248 H        1 UNL1     0.0359
     70 H         -1.343123   3.85367   -0.563268 H        1 UNL1     0.0600
     71 H         -1.635809   1.748343   -0.131247 H        1 UNL1     0.0348
     72 H         -0.88073   2.433448   2.08066 H        1 UNL1     0.0602
     73 H         4.009162   3.520404   1.591963 H        1 UNL1     0.0628
     74 H         2.082094   5.867833   2.078391 H        1 UNL1     0.1022
     75 H         -0.738049   -1.801396   10.663805 H        1 UNL1     0.0279
     76 H         -0.147409   -2.888224   9.470805 H        1 UNL1     0.0279
     77 H         0.894089   -2.301029   10.8294 H        1 UNL1     0.0279
     78 H         2.756519   -2.123426   9.129165 H        1 UNL1     0.1553
     79 H         1.994584   -2.365148   7.316087 H        1 UNL1     0.1484
     80 H         3.128913   -2.108083   3.698532 H        1 UNL1     0.0317
     81 H         4.210683   -1.82983   5.055836 H        1 UNL1     0.0317
     82 H         3.180977   -3.72325   6.339725 H        1 UNL1     0.0428
     83 H         3.808449   -4.2228   4.784595 H        1 UNL1     0.0428
     84 H         -0.390355   -3.578596   5.025799 H        1 UNL1     0.0428
     85 H         0.507097   -3.350186   6.485775 H        1 UNL1     0.0428
     86 H         -0.095289   -1.300906   5.196422 H        1 UNL1     0.0317
     87 H         0.767221   -1.796965   3.813543 H        1 UNL1     0.0317
     88 H         0.712279   -5.816789   4.330903 H        1 UNL1     0.0429
     89 H         2.428641   -6.046248   4.673957 H        1 UNL1     0.0429
     90 H         1.48741   -5.087252   7.116374 H        1 UNL1     0.0308
     91 H         -0.635684   -6.362474   7.609439 H        1 UNL1     0.0233
     92 H         -0.88558   -5.103941   6.372854 H        1 UNL1     0.0233
     93 H         -0.786439   -6.789068   5.909041 H        1 UNL1     0.0233
     94 H         1.521827   -7.480168   7.838255 H        1 UNL1     0.0233
     95 H         1.723179   -7.934199   6.138949 H        1 UNL1     0.0233
     96 H         2.96615   -6.953564   6.949732 H        1 UNL1     0.0233
     97 H         7.197997   4.886659   8.215934 H        1 UNL1     0.0280
     98 H         6.734465   5.482195   6.645054 H        1 UNL1     0.0280
     99 H         5.804946   5.97691   8.091077 H        1 UNL1     0.0280
     100 H         5.915779   2.09554   9.999751 H        1 UNL1     0.2922
     101 H         -3.025402   2.014547   3.38189 H        1 UNL1     0.0236
     102 H         -2.030379   3.501919   3.634312 H        1 UNL1     0.0236
     103 H         -2.61306   2.565586   4.975677 H        1 UNL1     0.0236
     104 H         -2.607255   1.16665   1.316166 H        1 UNL1     0.2098
     105 H         -0.02847   0.854997   -1.509622 H        1 UNL1     0.0234
     106 H         1.285112   1.051444   -0.315047 H        1 UNL1     0.0234
     107 H         0.0   0.0   0.0 H        1 UNL1     0.0234
     108 H         0.088612   5.25351   0.378463 H        1 UNL1     0.2098
     109 H         2.087729   1.40495   0.283417 H        1 UNL1     0.0234
     110 H         3.722791   1.028587   -0.347239 H        1 UNL1     0.0234
     111 H         3.529547   2.090366   1.003363 H        1 UNL1     0.0234
     112 H         3.647668   0.956814   -4.462439 H        1 UNL1     0.0342
     113 H         3.045955   1.543618   -6.053615 H        1 UNL1     0.0342
     114 H         3.757535   2.671764   -4.896502 H        1 UNL1     0.0342
     115 H         0.789147   5.463325   -3.256123 H        1 UNL1     0.0234
     116 H         -0.362663   5.934761   -2.002381 H        1 UNL1     0.0234
     117 H         1.392088   5.912596   -1.730342 H        1 UNL1     0.0234
     118 H         5.188251   2.561345   3.212378 H        1 UNL1     0.0309
     119 H         5.470507   4.152788   2.440561 H        1 UNL1     0.0309
     120 H         6.228827   3.718892   3.956754 H        1 UNL1     0.0309
     121 H         3.842062   6.909091   -0.853543 H        1 UNL1     0.0524
     122 H         3.337249   6.010112   -2.290155 H        1 UNL1     0.0524
     123 H         2.241215   7.220517   -1.577856 H        1 UNL1     0.0524
@<TRIPOS>BOND
     1     1     2    1
     2     1    42    1
     3     2     3    2
     4     3     4    1
     5     4     5    2
     6     5     7    1
     7     6    75    1
     8     6    76    1
     9     6    77    1
    10     7     9   am
    11     9    10    1
    12    10    11    2
    13    10    43    1
    14    11    14    1
    15    11    15    1
    16    12    13   ar
    17    12    27   ar
    18    12    43    1
    19    13    14    1
    20    13    30   ar
    21    14    17    2
    22    15    16    1
    23    16    17    1
    24    16    18    1
    25    16    22    1
    26    18    19    1
    27    19    20    1
    28    20    21    1
    29    21    22    1
    30    23    24    1
    31    23    88    1
    32    23    89    1
    33    24    25    1
    34    24    26    1
    35    24    90    1
    36    25    91    1
    37    25    92    1
    38    25    93    1
    39    26    94    1
    40    26    95    1
    41    26    96    1
    42    27    28   ar
    43    28    29   ar
    44    29    30   ar
    45    29    31    1
    46    30    33    1
    47    31    32    1
    48    32    33    1
    49    32    35    1
    50    34    97    1
    51    34    98    1
    52    34    99    1
    53    35    61    1
    54    36    37    1
    55    36    60    1
    56    37    38    1
    57    38    39    1
    58    39    40    1
    59    40    41    1
    60    41    42    1
    61    45   100    1
    62    47   101    1
    63    47   102    1
    64    47   103    1
    65    48   104    1
    66    49   105    1
    67    49   106    1
    68    49   107    1
    69    50   108    1
    70    51    59    1
    71    52   109    1
    72    52   110    1
    73    52   111    1
    74    53    54    1
    75    54    55    2
    76    54    56    1
    77    56   112    1
    78    56   113    1
    79    56   114    1
    80    57   115    1
    81    57   116    1
    82    57   117    1
    83    58   118    1
    84    58   119    1
    85    58   120    1
    86    59   121    1
    87    59   122    1
    88    59   123    1
    89    60    61    2
    90     1    47    1
    91     1    62    1
    92     2    63    1
    93     3    64    1
    94     4    65    1
    95     5     6    1
    96     7     8    2
    97     9    78    1
    98    15    79    1
    99    18    80    1
   100    18    81    1
   101    19    82    1
   102    19    83    1
   103    20    23    1
   104    21    84    1
   105    21    85    1
   106    22    86    1
   107    22    87    1
   108    27    45    1
   109    28    34    1
   110    32    58    1
   111    33    46    2
   112    36    51    1
   113    36    66    1
   114    37    52    1
   115    37    67    1
   116    38    53    1
   117    38    68    1
   118    42    48    1
   119    42    72    1
   120    43    44    2
   121    60    73    1
   122    61    74    1
   123    39    69    1
   124    39    57    1
   125    40    70    1
   126    40    50    1
   127    41    71    1
   128    41    49    1
