@<TRIPOS>MOLECULE
*****
 123 128 0 0 0
SMALL
GASTEIGER

@<TRIPOS>ATOM
     1 C         1.384439   3.10089   4.298786 C.3        1 UNL1     0.0009
     2 C         1.779837   4.812237   4.892074 C.2        1 UNL1     -0.0787
     3 C         2.749441   5.810593   5.291071 C.2        1 UNL1     -0.0649
     4 C         2.472719   7.437858   5.667623 C.2        1 UNL1     -0.0542
     5 C         3.066697   8.717991   5.792235 C.2        1 UNL1     0.0115
     6 C         4.421864   9.47687   5.823035 C.3        1 UNL1     -0.0348
     7 C         2.122061   10.015932   5.793387 C.2        1 UNL1     0.2441
     8 O         1.825014   10.621833   6.813765 O.2        1 UNL1     -0.2702
     9 N         1.871988   10.563505   4.523041 N.am        1 UNL1     -0.2772
     10 C         0.773197   9.965375   3.950136 C.2        1 UNL1     0.1049
     11 C         0.989269   8.814522   3.339337 C.2        1 UNL1     0.0801
     12 C         -1.599284   9.319743   4.410384 C.ar        1 UNL1     0.0753
     13 C         -1.255696   8.016416   3.928827 C.ar        1 UNL1     0.0305
     14 C         0.015348   7.760117   3.255174 C.2        1 UNL1     0.0924
     15 N         2.146193   8.221451   2.998281 N.pl3        1 UNL1     -0.3170
     16 C         1.82954   7.066898   2.200164 C.3        1 UNL1     0.1275
     17 N         0.454377   6.652622   2.663874 N.2        1 UNL1     -0.2557
     18 C         1.665092   7.543841   0.760309 C.3        1 UNL1     0.0016
     19 C         2.933836   8.268665   0.340179 C.3        1 UNL1     0.0026
     20 N         4.058821   7.35199   0.46324 N.3        1 UNL1     -0.3018
     21 C         4.26038   6.791158   1.800854 C.3        1 UNL1     0.0026
     22 C         2.975545   6.063793   2.200898 C.3        1 UNL1     0.0016
     23 C         5.257652   7.839714   -0.189121 C.3        1 UNL1     0.0012
     24 C         5.090463   7.808327   -1.716477 C.3        1 UNL1     -0.0339
     25 C         4.192516   8.955734   -2.207604 C.3        1 UNL1     -0.0615
     26 C         6.45147   7.836064   -2.390027 C.3        1 UNL1     -0.0615
     27 C         -2.859332   9.583719   4.942091 C.ar        1 UNL1     0.1347
     28 C         -3.867706   8.638768   5.007659 C.ar        1 UNL1     0.0342
     29 C         -3.490886   7.350293   4.572913 C.ar        1 UNL1     0.1435
     30 C         -2.220943   7.062227   4.071433 C.ar        1 UNL1     0.0774
     31 O         -4.392101   6.348979   4.471966 O.3        1 UNL1     -0.4436
     32 C         -3.781049   5.399064   3.585879 C.3        1 UNL1     0.3143
     33 C         -2.293107   5.670093   3.679614 C.2        1 UNL1     0.2504
     34 C         -5.311089   8.910408   5.328526 C.3        1 UNL1     -0.0327
     35 O         -4.003443   4.096125   4.13918 O.2        1 UNL1     -0.4528
     36 C         -4.161803   1.722595   1.181247 C.3        1 UNL1     0.0854
     37 C         -3.08882   1.460821   0.055324 C.3        1 UNL1     0.0236
     38 C         -2.648064   -0.071642   -0.115082 C.3        1 UNL1     0.1131
     39 C         -2.193191   -0.903252   1.151324 C.3        1 UNL1     0.0200
     40 C         -1.174245   -0.226211   2.285256 C.3        1 UNL1     0.0661
     41 C         0.285092   0.574201   1.957706 C.3        1 UNL1     0.0091
     42 C         1.098802   1.968945   2.82832 C.3        1 UNL1     0.0661
     43 C         -0.599639   10.403648   4.242694 C.2        1 UNL1     0.2131
     44 O         -0.884995   11.587403   4.236787 O.2        1 UNL1     -0.2851
     45 O         -3.097533   10.866732   5.430535 O.3        1 UNL1     -0.5056
     46 O         -1.374421   4.903562   3.494413 O.2        1 UNL1     -0.2836
     47 C         1.539771   2.079202   5.457236 C.3        1 UNL1     -0.0566
     48 O         2.432877   1.322001   2.857028 O.3        1 UNL1     -0.3909
     49 C         0.353659   0.877739   0.477619 C.3        1 UNL1     -0.0577
     50 O         -1.910384   0.489465   3.256663 O.3        1 UNL1     -0.3910
     51 O         -4.468963   0.622276   2.00731 O.3        1 UNL1     -0.3753
     52 C         -2.065449   2.6376   -0.058038 C.3        1 UNL1     -0.0564
     53 O         -1.91256   -0.346345   -1.394104 O.3        1 UNL1     -0.4608
     54 C         -0.860465   -1.212892   -1.535955 C.2        1 UNL1     0.3042
     55 O         0.331534   -0.978744   -1.340628 O.2        1 UNL1     -0.2512
     56 C         -1.275167   -2.604353   -1.921405 C.3        1 UNL1     0.0332
     57 C         -3.468376   -1.709583   1.682274 C.3        1 UNL1     -0.0567
     58 C         -4.264401   5.756244   2.160985 C.3        1 UNL1     0.0210
     59 C         -5.754534   0.045153   1.783481 C.3        1 UNL1     0.0372
     60 C         -3.859344   2.866212   2.084474 C.2        1 UNL1     -0.0208
     61 C         -3.940524   2.96415   3.412089 C.2        1 UNL1     0.0882
     62 H         0.323847   3.377986   4.266016 H        1 UNL1     0.0365
     63 H         0.775085   5.216362   5.032166 H        1 UNL1     0.0576
     64 H         3.823633   5.624449   5.223474 H        1 UNL1     0.0615
     65 H         1.387697   7.496344   5.789233 H        1 UNL1     0.0622
     66 H         -5.072912   2.003357   0.634345 H        1 UNL1     0.0645
     67 H         -3.63893   1.636878   -0.88539 H        1 UNL1     0.0362
     68 H         -3.611843   -0.507472   -0.419553 H        1 UNL1     0.0741
     69 H         -1.635454   -1.768163   0.817755 H        1 UNL1     0.0359
     70 H         -0.839053   -1.140885   2.810688 H        1 UNL1     0.0600
     71 H         0.993033   -0.273898   2.03835 H        1 UNL1     0.0348
     72 H         0.383453   1.540057   3.54501 H        1 UNL1     0.0602
     73 H         -3.660476   3.729878   1.499852 H        1 UNL1     0.0628
     74 H         -4.082789   2.118091   4.085277 H        1 UNL1     0.1022
     75 H         5.142246   8.965223   6.505897 H        1 UNL1     0.0279
     76 H         4.975472   9.519335   4.887735 H        1 UNL1     0.0279
     77 H         4.343686   10.467934   6.293546 H        1 UNL1     0.0279
     78 H         2.668124   10.389969   3.913016 H        1 UNL1     0.1553
     79 H         3.021657   8.706917   2.928854 H        1 UNL1     0.1484
     80 H         1.46693   6.677834   0.117246 H        1 UNL1     0.0317
     81 H         0.800504   8.209452   0.664918 H        1 UNL1     0.0317
     82 H         3.098386   9.179298   0.934808 H        1 UNL1     0.0428
     83 H         2.79435   8.601823   -0.688703 H        1 UNL1     0.0428
     84 H         5.060595   6.046014   1.848049 H        1 UNL1     0.0428
     85 H         4.567943   7.55912   2.524012 H        1 UNL1     0.0428
     86 H         3.204019   5.556777   3.119986 H        1 UNL1     0.0317
     87 H         2.77616   5.243069   1.501074 H        1 UNL1     0.0317
     88 H         5.417591   8.879853   0.123648 H        1 UNL1     0.0429
     89 H         6.142006   7.270052   0.124213 H        1 UNL1     0.0429
     90 H         4.631316   6.856288   -2.008059 H        1 UNL1     0.0308
     91 H         3.316748   8.574814   -2.741488 H        1 UNL1     0.0233
     92 H         3.861051   9.572838   -1.369199 H        1 UNL1     0.0233
     93 H         4.715984   9.630468   -2.895754 H        1 UNL1     0.0233
     94 H         6.356254   8.198873   -3.419172 H        1 UNL1     0.0233
     95 H         7.120036   8.515237   -1.853643 H        1 UNL1     0.0233
     96 H         6.904747   6.841132   -2.414906 H        1 UNL1     0.0233
     97 H         -5.972952   8.594573   4.527641 H        1 UNL1     0.0280
     98 H         -5.644539   8.370611   6.224454 H        1 UNL1     0.0280
     99 H         -5.456043   9.991047   5.490706 H        1 UNL1     0.0280
     100 H         -2.434111   11.193538   6.012508 H        1 UNL1     0.2922
     101 H         0.555942   1.782004   5.819741 H        1 UNL1     0.0236
     102 H         2.180982   2.437655   6.261813 H        1 UNL1     0.0236
     103 H         2.009556   1.139892   5.120795 H        1 UNL1     0.0236
     104 H         2.295052   0.36911   3.024276 H        1 UNL1     0.2098
     105 H         -0.27466   1.705854   0.159417 H        1 UNL1     0.0234
     106 H         1.362843   0.996003   0.083301 H        1 UNL1     0.0234
     107 H         0.0   0.0   -0.0 H        1 UNL1     0.0234
     108 H         -1.276388   1.044726   3.750122 H        1 UNL1     0.2098
     109 H         -2.552236   3.588968   -0.314259 H        1 UNL1     0.0234
     110 H         -1.457983   2.768105   0.844014 H        1 UNL1     0.0234
     111 H         -1.32816   2.457738   -0.851764 H        1 UNL1     0.0234
     112 H         -0.39345   -3.247914   -1.997236 H        1 UNL1     0.0342
     113 H         -2.004595   -3.02105   -1.228482 H        1 UNL1     0.0342
     114 H         -1.745855   -2.559748   -2.913185 H        1 UNL1     0.0342
     115 H         -3.189158   -2.687581   2.097899 H        1 UNL1     0.0234
     116 H         -4.04218   -1.180162   2.4455 H        1 UNL1     0.0234
     117 H         -4.164326   -2.00978   0.880104 H        1 UNL1     0.0234
     118 H         -4.955507   4.996878   1.755102 H        1 UNL1     0.0309
     119 H         -4.739583   6.740623   2.102651 H        1 UNL1     0.0309
     120 H         -3.447541   5.770121   1.431154 H        1 UNL1     0.0309
     121 H         -6.064918   -0.437764   2.709661 H        1 UNL1     0.0524
     122 H         -6.515474   0.802972   1.533042 H        1 UNL1     0.0524
     123 H         -5.704567   -0.683487   0.979316 H        1 UNL1     0.0524
@<TRIPOS>BOND
     1     1     2    1
     2     1    42    1
     3     2     3    2
     4     3     4    1
     5     4     5    2
     6     5     7    1
     7     6    75    1
     8     6    76    1
     9     6    77    1
    10     7     9   am
    11     9    10    1
    12    10    11    2
    13    10    43    1
    14    11    14    1
    15    11    15    1
    16    12    13   ar
    17    12    27   ar
    18    12    43    1
    19    13    14    1
    20    13    30   ar
    21    14    17    2
    22    15    16    1
    23    16    17    1
    24    16    18    1
    25    16    22    1
    26    18    19    1
    27    19    20    1
    28    20    21    1
    29    21    22    1
    30    23    24    1
    31    23    88    1
    32    23    89    1
    33    24    25    1
    34    24    26    1
    35    24    90    1
    36    25    91    1
    37    25    92    1
    38    25    93    1
    39    26    94    1
    40    26    95    1
    41    26    96    1
    42    27    28   ar
    43    28    29   ar
    44    29    30   ar
    45    29    31    1
    46    30    33    1
    47    31    32    1
    48    32    33    1
    49    32    35    1
    50    34    97    1
    51    34    98    1
    52    34    99    1
    53    35    61    1
    54    36    37    1
    55    36    60    1
    56    37    38    1
    57    38    39    1
    58    39    40    1
    59    40    41    1
    60    41    42    1
    61    45   100    1
    62    47   101    1
    63    47   102    1
    64    47   103    1
    65    48   104    1
    66    49   105    1
    67    49   106    1
    68    49   107    1
    69    50   108    1
    70    51    59    1
    71    52   109    1
    72    52   110    1
    73    52   111    1
    74    53    54    1
    75    54    55    2
    76    54    56    1
    77    56   112    1
    78    56   113    1
    79    56   114    1
    80    57   115    1
    81    57   116    1
    82    57   117    1
    83    58   118    1
    84    58   119    1
    85    58   120    1
    86    59   121    1
    87    59   122    1
    88    59   123    1
    89    60    61    2
    90     1    47    1
    91     1    62    1
    92     2    63    1
    93     3    64    1
    94     4    65    1
    95     5     6    1
    96     7     8    2
    97     9    78    1
    98    15    79    1
    99    18    80    1
   100    18    81    1
   101    19    82    1
   102    19    83    1
   103    20    23    1
   104    21    84    1
   105    21    85    1
   106    22    86    1
   107    22    87    1
   108    27    45    1
   109    28    34    1
   110    32    58    1
   111    33    46    2
   112    36    51    1
   113    36    66    1
   114    37    52    1
   115    37    67    1
   116    38    53    1
   117    38    68    1
   118    42    48    1
   119    42    72    1
   120    43    44    2
   121    60    73    1
   122    61    74    1
   123    39    69    1
   124    39    57    1
   125    40    70    1
   126    40    50    1
   127    41    71    1
   128    41    49    1
