@<TRIPOS>MOLECULE
*****
 123 128 0 0 0
SMALL
GASTEIGER

@<TRIPOS>ATOM
     1 C         4.971448   2.239827   0.528805 C.3        1 UNL1     0.0009
     2 C         6.358569   3.116918   -0.333543 C.2        1 UNL1     -0.0787
     3 C         7.670894   3.095636   -0.944604 C.2        1 UNL1     -0.0649
     4 C         8.456616   4.35016   -1.76629 C.2        1 UNL1     -0.0542
     5 C         9.482472   4.669754   -2.68963 C.2        1 UNL1     0.0115
     6 C         10.701099   4.094815   -3.462751 C.3        1 UNL1     -0.0348
     7 C         9.460259   6.104309   -3.409732 C.2        1 UNL1     0.2441
     8 O         10.184648   7.030121   -3.071119 O.2        1 UNL1     -0.2702
     9 N         8.743685   6.145557   -4.618439 N.am        1 UNL1     -0.2772
     10 C         7.417641   6.426012   -4.381217 C.2        1 UNL1     0.1049
     11 C         6.657615   5.400741   -4.041508 C.2        1 UNL1     0.0801
     12 C         5.912413   7.999305   -3.149806 C.ar        1 UNL1     0.0753
     13 C         5.24712   6.839284   -2.639567 C.ar        1 UNL1     0.0305
     14 C         5.516185   5.50603   -3.173506 C.2        1 UNL1     0.0924
     15 N         6.914055   4.082213   -4.088946 N.pl3        1 UNL1     -0.3170
     16 C         5.695569   3.385898   -3.771627 C.3        1 UNL1     0.1275
     17 N         4.929489   4.345558   -2.89419 N.2        1 UNL1     -0.2557
     18 C         4.89508   3.263112   -5.064625 C.3        1 UNL1     0.0016
     19 C         5.75919   2.572816   -6.107887 C.3        1 UNL1     0.0026
     20 N         6.144063   1.26193   -5.603428 N.3        1 UNL1     -0.3018
     21 C         6.866325   1.27345   -4.329625 C.3        1 UNL1     0.0026
     22 C         5.978186   1.967174   -3.295288 C.3        1 UNL1     0.0016
     23 C         6.711739   0.407924   -6.627664 C.3        1 UNL1     0.0012
     24 C         5.62811   -0.029412   -7.625784 C.3        1 UNL1     -0.0339
     25 C         5.854039   0.597275   -9.011524 C.3        1 UNL1     -0.0615
     26 C         5.570167   -1.545274   -7.700527 C.3        1 UNL1     -0.0615
     27 C         5.564223   9.278048   -2.721206 C.ar        1 UNL1     0.1347
     28 C         4.54404   9.523903   -1.819634 C.ar        1 UNL1     0.0342
     29 C         3.936007   8.364094   -1.29399 C.ar        1 UNL1     0.1435
     30 C         4.298834   7.075214   -1.686885 C.ar        1 UNL1     0.0774
     31 O         2.853836   8.438913   -0.48881 O.3        1 UNL1     -0.4436
     32 C         2.260684   7.133349   -0.556234 C.3        1 UNL1     0.3143
     33 C         3.386322   6.207796   -0.971569 C.2        1 UNL1     0.2504
     34 C         3.949724   10.868684   -1.505861 C.3        1 UNL1     -0.0327
     35 O         1.888493   6.765168   0.777621 O.2        1 UNL1     -0.4528
     36 C         -1.134104   4.496193   0.425844 C.3        1 UNL1     0.0854
     37 C         -1.278654   3.146517   -0.377277 C.3        1 UNL1     0.0236
     38 C         -1.787883   1.896225   0.488285 C.3        1 UNL1     0.1131
     39 C         -1.069996   1.541163   1.852411 C.3        1 UNL1     0.0200
     40 C         0.594271   1.564666   1.962417 C.3        1 UNL1     0.0661
     41 C         1.671574   0.807489   0.892972 C.3        1 UNL1     0.0091
     42 C         3.358658   1.293322   0.360885 C.3        1 UNL1     0.0661
     43 C         6.924469   7.801573   -4.217001 C.2        1 UNL1     0.2131
     44 O         7.266106   8.677175   -4.991174 O.2        1 UNL1     -0.2851
     45 O         6.291818   10.350421   -3.233125 O.3        1 UNL1     -0.5056
     46 O         3.512426   5.025357   -0.744 O.2        1 UNL1     -0.2836
     47 C         5.346236   1.963242   2.009688 C.3        1 UNL1     -0.0566
     48 O         3.936969   -0.055906   0.571256 O.3        1 UNL1     -0.3909
     49 C         0.916675   0.398994   -0.35232 C.3        1 UNL1     -0.0577
     50 O         1.057482   2.862548   2.276521 O.3        1 UNL1     -0.3910
     51 O         -1.297972   4.402323   1.8229 O.3        1 UNL1     -0.3753
     52 C         -0.175919   3.002581   -1.476462 C.3        1 UNL1     -0.0564
     53 O         -2.249295   0.736722   -0.345369 O.3        1 UNL1     -0.4608
     54 C         -2.055545   -0.58604   -0.044219 C.2        1 UNL1     0.3042
     55 O         -1.272067   -1.367493   -0.582116 O.2        1 UNL1     -0.2512
     56 C         -2.879319   -1.06538   1.116963 C.3        1 UNL1     0.0332
     57 C         -1.904571   2.23002   3.030178 C.3        1 UNL1     -0.0567
     58 C         1.213605   7.186803   -1.693027 C.3        1 UNL1     0.0210
     59 C         -2.513229   4.958514   2.322569 C.3        1 UNL1     0.0372
     60 C         0.136789   5.234444   0.191375 C.2        1 UNL1     -0.0208
     61 C         0.966154   5.823402   1.053945 C.2        1 UNL1     0.0882
     62 H         4.399851   3.17573   0.52021 H        1 UNL1     0.0365
     63 H         5.98803   4.144075   -0.322537 H        1 UNL1     0.0576
     64 H         8.228304   2.164856   -1.071298 H        1 UNL1     0.0615
     65 H         7.869582   5.236611   -1.511186 H        1 UNL1     0.0622
     66 H         -1.933328   5.139216   0.031118 H        1 UNL1     0.0645
     67 H         -2.143375   3.320764   -1.040945 H        1 UNL1     0.0362
     68 H         -2.786562   2.262689   0.770895 H        1 UNL1     0.0741
     69 H         -1.310715   0.520133   2.116913 H        1 UNL1     0.0359
     70 H         0.731744   0.988154   2.897187 H        1 UNL1     0.0600
     71 H         1.795088   -0.168586   1.401873 H        1 UNL1     0.0348
     72 H         3.165096   1.842252   1.293904 H        1 UNL1     0.0602
     73 H         0.278794   5.362397   -0.852996 H        1 UNL1     0.0628
     74 H         0.923831   5.694643   2.136011 H        1 UNL1     0.1022
     75 H         11.36209   3.513065   -2.775952 H        1 UNL1     0.0279
     76 H         10.481995   3.37177   -4.245227 H        1 UNL1     0.0279
     77 H         11.389195   4.877381   -3.814624 H        1 UNL1     0.0279
     78 H         8.787807   5.236101   -5.073434 H        1 UNL1     0.1553
     79 H         7.642841   3.676258   -4.646623 H        1 UNL1     0.1484
     80 H         3.978124   2.695597   -4.864913 H        1 UNL1     0.0317
     81 H         4.581476   4.24845   -5.425751 H        1 UNL1     0.0317
     82 H         6.644087   3.173217   -6.365545 H        1 UNL1     0.0428
     83 H         5.169806   2.497191   -7.022194 H        1 UNL1     0.0428
     84 H         7.073214   0.274347   -3.933645 H        1 UNL1     0.0428
     85 H         7.859719   1.732778   -4.427114 H        1 UNL1     0.0428
     86 H         6.477522   1.839589   -2.352753 H        1 UNL1     0.0317
     87 H         5.044801   1.40576   -3.166051 H        1 UNL1     0.0317
     88 H         7.473553   0.983984   -7.169041 H        1 UNL1     0.0429
     89 H         7.218073   -0.460598   -6.187131 H        1 UNL1     0.0429
     90 H         4.647308   0.289844   -7.253877 H        1 UNL1     0.0308
     91 H         6.9052   0.86078   -9.162276 H        1 UNL1     0.0233
     92 H         5.53936   -0.088557   -9.801601 H        1 UNL1     0.0233
     93 H         5.272157   1.51589   -9.154334 H        1 UNL1     0.0233
     94 H         4.845049   -1.858572   -8.459398 H        1 UNL1     0.0233
     95 H         6.548482   -1.943029   -7.984519 H        1 UNL1     0.0233
     96 H         5.276772   -1.981171   -6.741423 H        1 UNL1     0.0233
     97 H         2.883265   10.900067   -1.708128 H        1 UNL1     0.0280
     98 H         4.062641   11.13406   -0.446578 H        1 UNL1     0.0280
     99 H         4.440751   11.641475   -2.119686 H        1 UNL1     0.0280
     100 H         7.226071   10.245983   -3.189698 H        1 UNL1     0.2922
     101 H         4.817197   2.660318   2.659196 H        1 UNL1     0.0236
     102 H         6.420859   1.972525   2.188803 H        1 UNL1     0.0236
     103 H         5.014685   0.965097   2.34131 H        1 UNL1     0.0236
     104 H         4.165268   -0.134592   1.518177 H        1 UNL1     0.2098
     105 H         0.685047   1.21969   -1.026574 H        1 UNL1     0.0234
     106 H         1.362141   -0.42882   -0.903873 H        1 UNL1     0.0234
     107 H         0.0   -0.0   0.0 H        1 UNL1     0.0234
     108 H         2.018892   2.876739   2.105474 H        1 UNL1     0.2098
     109 H         -0.223632   3.808885   -2.221653 H        1 UNL1     0.0234
     110 H         0.837298   2.943837   -1.064535 H        1 UNL1     0.0234
     111 H         -0.287893   2.068022   -2.042154 H        1 UNL1     0.0234
     112 H         -2.657929   -2.117333   1.321237 H        1 UNL1     0.0342
     113 H         -2.728579   -0.454638   2.005846 H        1 UNL1     0.0342
     114 H         -3.939704   -0.992257   0.838751 H        1 UNL1     0.0342
     115 H         -1.881999   1.631145   3.951062 H        1 UNL1     0.0234
     116 H         -1.565841   3.23631   3.284522 H        1 UNL1     0.0234
     117 H         -2.989314   2.275689   2.832219 H        1 UNL1     0.0234
     118 H         0.180332   7.131839   -1.307888 H        1 UNL1     0.0309
     119 H         1.312777   8.07353   -2.327128 H        1 UNL1     0.0309
     120 H         1.278732   6.324378   -2.365401 H        1 UNL1     0.0309
     121 H         -3.294499   4.209222   2.19793 H        1 UNL1     0.0524
     122 H         -2.452499   5.199232   3.397001 H        1 UNL1     0.0524
     123 H         -2.76771   5.860367   1.773029 H        1 UNL1     0.0524
@<TRIPOS>BOND
     1     1     2    1
     2     1    42    1
     3     2     3    2
     4     3     4    1
     5     4     5    2
     6     5     7    1
     7     6    75    1
     8     6    76    1
     9     6    77    1
    10     7     9   am
    11     9    10    1
    12    10    11    2
    13    10    43    1
    14    11    14    1
    15    11    15    1
    16    12    13   ar
    17    12    27   ar
    18    12    43    1
    19    13    14    1
    20    13    30   ar
    21    14    17    2
    22    15    16    1
    23    16    17    1
    24    16    18    1
    25    16    22    1
    26    18    19    1
    27    19    20    1
    28    20    21    1
    29    21    22    1
    30    23    24    1
    31    23    88    1
    32    23    89    1
    33    24    25    1
    34    24    26    1
    35    24    90    1
    36    25    91    1
    37    25    92    1
    38    25    93    1
    39    26    94    1
    40    26    95    1
    41    26    96    1
    42    27    28   ar
    43    28    29   ar
    44    29    30   ar
    45    29    31    1
    46    30    33    1
    47    31    32    1
    48    32    33    1
    49    32    35    1
    50    34    97    1
    51    34    98    1
    52    34    99    1
    53    35    61    1
    54    36    37    1
    55    36    60    1
    56    37    38    1
    57    38    39    1
    58    39    40    1
    59    40    41    1
    60    41    42    1
    61    45   100    1
    62    47   101    1
    63    47   102    1
    64    47   103    1
    65    48   104    1
    66    49   105    1
    67    49   106    1
    68    49   107    1
    69    50   108    1
    70    51    59    1
    71    52   109    1
    72    52   110    1
    73    52   111    1
    74    53    54    1
    75    54    55    2
    76    54    56    1
    77    56   112    1
    78    56   113    1
    79    56   114    1
    80    57   115    1
    81    57   116    1
    82    57   117    1
    83    58   118    1
    84    58   119    1
    85    58   120    1
    86    59   121    1
    87    59   122    1
    88    59   123    1
    89    60    61    2
    90     1    47    1
    91     1    62    1
    92     2    63    1
    93     3    64    1
    94     4    65    1
    95     5     6    1
    96     7     8    2
    97     9    78    1
    98    15    79    1
    99    18    80    1
   100    18    81    1
   101    19    82    1
   102    19    83    1
   103    20    23    1
   104    21    84    1
   105    21    85    1
   106    22    86    1
   107    22    87    1
   108    27    45    1
   109    28    34    1
   110    32    58    1
   111    33    46    2
   112    36    51    1
   113    36    66    1
   114    37    52    1
   115    37    67    1
   116    38    53    1
   117    38    68    1
   118    42    48    1
   119    42    72    1
   120    43    44    2
   121    60    73    1
   122    61    74    1
   123    39    69    1
   124    39    57    1
   125    40    70    1
   126    40    50    1
   127    41    71    1
   128    41    49    1
