@<TRIPOS>MOLECULE
*****
 123 128 0 0 0
SMALL
GASTEIGER

@<TRIPOS>ATOM
     1 C         5.167548   1.74828   0.489114 C.3        1 UNL1     0.0009
     2 C         6.603803   2.554664   -0.361742 C.2        1 UNL1     -0.0787
     3 C         7.885299   2.456683   -1.028234 C.2        1 UNL1     -0.0649
     4 C         8.762393   3.692075   -1.783795 C.2        1 UNL1     -0.0542
     5 C         9.781906   3.985057   -2.722854 C.2        1 UNL1     0.0115
     6 C         10.909578   3.359912   -3.589383 C.3        1 UNL1     -0.0348
     7 C         9.87699   5.468564   -3.328788 C.2        1 UNL1     0.2441
     8 O         10.701135   6.290003   -2.951233 O.2        1 UNL1     -0.2702
     9 N         9.126119   5.676069   -4.498953 N.am        1 UNL1     -0.2772
     10 C         7.843604   6.062693   -4.18431 C.2        1 UNL1     0.1049
     11 C         6.997926   5.091206   -3.892308 C.2        1 UNL1     0.0801
     12 C         6.546104   7.668825   -2.772161 C.ar        1 UNL1     0.0753
     13 C         5.787233   6.540766   -2.324718 C.ar        1 UNL1     0.0305
     14 C         5.903722   5.23533   -2.970721 C.2        1 UNL1     0.0924
     15 N         7.120378   3.762288   -4.052027 N.pl3        1 UNL1     -0.3170
     16 C         5.850661   3.163061   -3.737386 C.3        1 UNL1     0.1275
     17 N         5.214871   4.11792   -2.756703 N.2        1 UNL1     -0.2557
     18 C         4.997102   3.222714   -5.000549 C.3        1 UNL1     0.0016
     19 C         5.751305   2.539054   -6.129874 C.3        1 UNL1     0.0026
     20 N         6.021583   1.160773   -5.744749 N.3        1 UNL1     -0.3018
     21 C         6.785631   0.999812   -4.505923 C.3        1 UNL1     0.0026
     22 C         6.00756   1.689905   -3.384196 C.3        1 UNL1     0.0016
     23 C         6.465414   0.341677   -6.855037 C.3        1 UNL1     0.0012
     24 C         5.309399   0.092683   -7.83656 C.3        1 UNL1     -0.0339
     25 C         5.344502   1.085323   -9.010225 C.3        1 UNL1     -0.0615
     26 C         5.338142   -1.346612   -8.32069 C.3        1 UNL1     -0.0615
     27 C         6.341824   8.936304   -2.231896 C.ar        1 UNL1     0.1347
     28 C         5.383326   9.205505   -1.27124 C.ar        1 UNL1     0.0342
     29 C         4.681957   8.070903   -0.810887 C.ar        1 UNL1     0.1435
     30 C         4.901038   6.789076   -1.31699 C.ar        1 UNL1     0.0774
     31 O         3.641457   8.184174   0.043242 O.3        1 UNL1     -0.4436
     32 C         2.919625   6.951456   -0.099025 C.3        1 UNL1     0.3143
     33 C         3.932561   5.958514   -0.632165 C.2        1 UNL1     0.2504
     34 C         4.936819   10.571451   -0.829739 C.3        1 UNL1     -0.0327
     35 O         2.559712   6.514228   1.217238 O.2        1 UNL1     -0.4528
     36 C         -0.683674   4.5824   0.82155 C.3        1 UNL1     0.0854
     37 C         -0.989568   3.322207   -0.07615 C.3        1 UNL1     0.0236
     38 C         -1.589748   2.060871   0.711607 C.3        1 UNL1     0.1131
     39 C         -0.863277   1.529355   2.012376 C.3        1 UNL1     0.0200
     40 C         0.79793   1.383694   2.052533 C.3        1 UNL1     0.0661
     41 C         1.756584   0.61529   0.882854 C.3        1 UNL1     0.0091
     42 C         3.463869   0.977979   0.31802 C.3        1 UNL1     0.0661
     43 C         7.495491   7.461529   -3.893745 C.2        1 UNL1     0.2131
     44 O         7.895016   8.359879   -4.612135 O.2        1 UNL1     -0.2851
     45 O         7.15389   9.971552   -2.690426 O.3        1 UNL1     -0.5056
     46 O         3.948553   4.754924   -0.501892 O.2        1 UNL1     -0.2836
     47 C         5.564711   1.31819   1.926912 C.3        1 UNL1     -0.0566
     48 O         3.912394   -0.433187   0.39897 O.3        1 UNL1     -0.3909
     49 C         0.92167   0.383258   -0.356733 C.3        1 UNL1     -0.0577
     50 O         1.398428   2.601359   2.445491 O.3        1 UNL1     -0.3910
     51 O         -0.806973   4.392164   2.212966 O.3        1 UNL1     -0.3753
     52 C         0.054214   3.162142   -1.229341 C.3        1 UNL1     -0.0564
     53 O         -2.192932   1.022291   -0.188307 O.3        1 UNL1     -0.4608
     54 C         -2.427226   -0.284584   0.150974 C.2        1 UNL1     0.3042
     55 O         -1.858442   -1.283571   -0.287601 O.2        1 UNL1     -0.2512
     56 C         -3.466637   -0.450601   1.222784 C.3        1 UNL1     0.0332
     57 C         -1.583536   2.19788   3.27431 C.3        1 UNL1     -0.0567
     58 C         1.84382   7.197053   -1.18247 C.3        1 UNL1     0.0210
     59 C         -1.119671   5.570888   2.953706 C.3        1 UNL1     0.0372
     60 C         0.645227   5.211495   0.590421 C.2        1 UNL1     -0.0208
     61 C         1.558692   5.64632   1.459475 C.2        1 UNL1     0.0882
     62 H         4.69174   2.732447   0.577055 H        1 UNL1     0.0365
     63 H         6.337682   3.608437   -0.255857 H        1 UNL1     0.0576
     64 H         8.342765   1.489895   -1.249937 H        1 UNL1     0.0615
     65 H         8.275569   4.607362   -1.436325 H        1 UNL1     0.0622
     66 H         -1.428457   5.329099   0.51206 H        1 UNL1     0.0645
     67 H         -1.855451   3.631872   -0.686816 H        1 UNL1     0.0362
     68 H         -2.536586   2.497665   1.06407 H        1 UNL1     0.0741
     69 H         -1.19475   0.518199   2.207564 H        1 UNL1     0.0359
     70 H         0.910176   0.723002   2.933412 H        1 UNL1     0.0600
     71 H         1.80035   -0.406049   1.30936 H        1 UNL1     0.0348
     72 H         3.358588   1.465797   1.297951 H        1 UNL1     0.0602
     73 H         0.762532   5.409152   -0.446121 H        1 UNL1     0.0628
     74 H         1.541755   5.435228   2.529237 H        1 UNL1     0.1022
     75 H         10.951999   2.254158   -3.439243 H        1 UNL1     0.0279
     76 H         10.796799   3.445736   -4.667801 H        1 UNL1     0.0279
     77 H         11.914978   3.661973   -3.261311 H        1 UNL1     0.0279
     78 H         9.063757   4.806334   -5.024071 H        1 UNL1     0.1553
     79 H         7.785261   3.334502   -4.669977 H        1 UNL1     0.1484
     80 H         4.035903   2.731764   -4.806049 H        1 UNL1     0.0317
     81 H         4.770402   4.25959   -5.271007 H        1 UNL1     0.0317
     82 H         6.681857   3.070395   -6.378192 H        1 UNL1     0.0428
     83 H         5.125635   2.594592   -7.021224 H        1 UNL1     0.0428
     84 H         6.906064   -0.043271   -4.197239 H        1 UNL1     0.0428
     85 H         7.815686   1.36782   -4.610196 H        1 UNL1     0.0428
     86 H         6.524497   1.439148   -2.476515 H        1 UNL1     0.0317
     87 H         5.028158   1.212282   -3.258724 H        1 UNL1     0.0317
     88 H         7.261204   0.883632   -7.382576 H        1 UNL1     0.0429
     89 H         6.898153   -0.604262   -6.504738 H        1 UNL1     0.0429
     90 H         4.356683   0.211609   -7.30703 H        1 UNL1     0.0308
     91 H         6.297356   1.034697   -9.545584 H        1 UNL1     0.0233
     92 H         4.52919   0.885678   -9.709522 H        1 UNL1     0.0233
     93 H         5.21863   2.124311   -8.68236 H        1 UNL1     0.0233
     94 H         4.643156   -1.477704   -9.157139 H        1 UNL1     0.0233
     95 H         6.341426   -1.602438   -8.672734 H        1 UNL1     0.0233
     96 H         5.055632   -2.041131   -7.524574 H        1 UNL1     0.0233
     97 H         4.137612   10.521568   -0.096247 H        1 UNL1     0.0280
     98 H         5.747462   11.137772   -0.352881 H        1 UNL1     0.0280
     99 H         4.571476   11.139729   -1.700762 H        1 UNL1     0.0280
     100 H         6.686732   10.722842   -3.011281 H        1 UNL1     0.2922
     101 H         4.702166   0.884405   2.432387 H        1 UNL1     0.0236
     102 H         6.01588   2.123279   2.505929 H        1 UNL1     0.0236
     103 H         6.320909   0.515473   1.925055 H        1 UNL1     0.0236
     104 H         4.332115   -0.559637   1.272363 H        1 UNL1     0.2098
     105 H         0.708743   1.282327   -0.929575 H        1 UNL1     0.0234
     106 H         1.290625   -0.40453   -1.013383 H        1 UNL1     0.0234
     107 H         0.0   -0.0   0.0 H        1 UNL1     0.0234
     108 H         1.204907   3.258234   1.749191 H        1 UNL1     0.2098
     109 H         1.080714   3.060847   -0.850198 H        1 UNL1     0.0234
     110 H         -0.172009   2.327707   -1.901861 H        1 UNL1     0.0234
     111 H         0.066285   4.039984   -1.889033 H        1 UNL1     0.0234
     112 H         -3.598932   -1.512427   1.451629 H        1 UNL1     0.0342
     113 H         -3.222956   0.115199   2.120745 H        1 UNL1     0.0342
     114 H         -4.421484   -0.067727   0.836986 H        1 UNL1     0.0342
     115 H         -2.653153   1.949654   3.312944 H        1 UNL1     0.0234
     116 H         -1.146532   1.917718   4.234823 H        1 UNL1     0.0234
     117 H         -1.622096   3.299757   3.226133 H        1 UNL1     0.0234
     118 H         0.942394   7.682443   -0.769148 H        1 UNL1     0.0309
     119 H         2.212301   7.786643   -2.027933 H        1 UNL1     0.0309
     120 H         1.456049   6.26532   -1.608631 H        1 UNL1     0.0309
     121 H         -0.29866   6.274058   2.816412 H        1 UNL1     0.0524
     122 H         -2.039649   6.060127   2.592704 H        1 UNL1     0.0524
     123 H         -1.237038   5.332745   4.007085 H        1 UNL1     0.0524
@<TRIPOS>BOND
     1     1     2    1
     2     1    42    1
     3     2     3    2
     4     3     4    1
     5     4     5    2
     6     5     7    1
     7     6    75    1
     8     6    76    1
     9     6    77    1
    10     7     9   am
    11     9    10    1
    12    10    11    2
    13    10    43    1
    14    11    14    1
    15    11    15    1
    16    12    13   ar
    17    12    27   ar
    18    12    43    1
    19    13    14    1
    20    13    30   ar
    21    14    17    2
    22    15    16    1
    23    16    17    1
    24    16    18    1
    25    16    22    1
    26    18    19    1
    27    19    20    1
    28    20    21    1
    29    21    22    1
    30    23    24    1
    31    23    88    1
    32    23    89    1
    33    24    25    1
    34    24    26    1
    35    24    90    1
    36    25    91    1
    37    25    92    1
    38    25    93    1
    39    26    94    1
    40    26    95    1
    41    26    96    1
    42    27    28   ar
    43    28    29   ar
    44    29    30   ar
    45    29    31    1
    46    30    33    1
    47    31    32    1
    48    32    33    1
    49    32    35    1
    50    34    97    1
    51    34    98    1
    52    34    99    1
    53    35    61    1
    54    36    37    1
    55    36    60    1
    56    37    38    1
    57    38    39    1
    58    39    40    1
    59    40    41    1
    60    41    42    1
    61    45   100    1
    62    47   101    1
    63    47   102    1
    64    47   103    1
    65    48   104    1
    66    49   105    1
    67    49   106    1
    68    49   107    1
    69    50   108    1
    70    51    59    1
    71    52   109    1
    72    52   110    1
    73    52   111    1
    74    53    54    1
    75    54    55    2
    76    54    56    1
    77    56   112    1
    78    56   113    1
    79    56   114    1
    80    57   115    1
    81    57   116    1
    82    57   117    1
    83    58   118    1
    84    58   119    1
    85    58   120    1
    86    59   121    1
    87    59   122    1
    88    59   123    1
    89    60    61    2
    90     1    47    1
    91     1    62    1
    92     2    63    1
    93     3    64    1
    94     4    65    1
    95     5     6    1
    96     7     8    2
    97     9    78    1
    98    15    79    1
    99    18    80    1
   100    18    81    1
   101    19    82    1
   102    19    83    1
   103    20    23    1
   104    21    84    1
   105    21    85    1
   106    22    86    1
   107    22    87    1
   108    27    45    1
   109    28    34    1
   110    32    58    1
   111    33    46    2
   112    36    51    1
   113    36    66    1
   114    37    52    1
   115    37    67    1
   116    38    53    1
   117    38    68    1
   118    42    48    1
   119    42    72    1
   120    43    44    2
   121    60    73    1
   122    61    74    1
   123    39    69    1
   124    39    57    1
   125    40    70    1
   126    40    50    1
   127    41    71    1
   128    41    49    1
