@<TRIPOS>MOLECULE
*****
 123 128 0 0 0
SMALL
GASTEIGER

@<TRIPOS>ATOM
     1 C         5.036524   2.056576   0.644732 C.3        1 UNL1     0.0009
     2 C         6.422359   2.998158   -0.148944 C.2        1 UNL1     -0.0787
     3 C         7.717856   3.020048   -0.794897 C.2        1 UNL1     -0.0649
     4 C         8.512923   4.344525   -1.487709 C.2        1 UNL1     -0.0542
     5 C         9.522543   4.747315   -2.396282 C.2        1 UNL1     0.0115
     6 C         10.706756   4.240266   -3.264535 C.3        1 UNL1     -0.0348
     7 C         9.517152   6.255994   -2.944778 C.2        1 UNL1     0.2441
     8 O         10.272308   7.1205   -2.521819 O.2        1 UNL1     -0.2702
     9 N         8.771383   6.452741   -4.120052 N.am        1 UNL1     -0.2772
     10 C         7.459033   6.731955   -3.814933 C.2        1 UNL1     0.1049
     11 C         6.683029   5.6906   -3.574888 C.2        1 UNL1     0.0801
     12 C         6.024421   8.183206   -2.368181 C.ar        1 UNL1     0.0753
     13 C         5.344121   6.986202   -1.977052 C.ar        1 UNL1     0.0305
     14 C         5.56689   5.718614   -2.668895 C.2        1 UNL1     0.0924
     15 N         6.905876   4.381354   -3.781628 N.pl3        1 UNL1     -0.3170
     16 C         5.679171   3.679035   -3.512933 C.3        1 UNL1     0.1275
     17 N         4.959272   4.546326   -2.509302 N.2        1 UNL1     -0.2557
     18 C         4.843392   3.724487   -4.788516 C.3        1 UNL1     0.0016
     19 C         5.663639   3.141855   -5.928395 C.3        1 UNL1     0.0026
     20 N         6.02902   1.773306   -5.589873 N.3        1 UNL1     -0.3018
     21 C         6.783414   1.621269   -4.344022 C.3        1 UNL1     0.0026
     22 C         5.93901   2.208854   -3.211936 C.3        1 UNL1     0.0016
     23 C         6.549498   1.032225   -6.721485 C.3        1 UNL1     0.0012
     24 C         5.430543   0.737097   -7.73272 C.3        1 UNL1     -0.0339
     25 C         5.773698   1.286134   -9.127302 C.3        1 UNL1     -0.0615
     26 C         5.145599   -0.754182   -7.773636 C.3        1 UNL1     -0.0615
     27 C         5.718573   9.410599   -1.785015 C.ar        1 UNL1     0.1347
     28 C         4.727892   9.571705   -0.832835 C.ar        1 UNL1     0.0342
     29 C         4.105213   8.371898   -0.42799 C.ar        1 UNL1     0.1435
     30 C         4.426346   7.129977   -0.977286 C.ar        1 UNL1     0.0774
     31 O         3.045958   8.375693   0.410445 O.3        1 UNL1     -0.4436
     32 C         2.419551   7.099773   0.209164 C.3        1 UNL1     0.3143
     33 C         3.511335   6.204964   -0.341778 C.2        1 UNL1     0.2504
     34 C         4.174773   10.883271   -0.349148 C.3        1 UNL1     -0.0327
     35 O         2.072411   6.587071   1.501403 O.2        1 UNL1     -0.4528
     36 C         -1.012695   4.439386   0.974466 C.3        1 UNL1     0.0854
     37 C         -1.210511   3.195606   0.025044 C.3        1 UNL1     0.0236
     38 C         -1.728041   1.864331   0.754163 C.3        1 UNL1     0.1131
     39 C         -0.98469   1.337875   2.047431 C.3        1 UNL1     0.0200
     40 C         0.681908   1.312913   2.112742 C.3        1 UNL1     0.0661
     41 C         1.712918   0.662363   0.93316 C.3        1 UNL1     0.0091
     42 C         3.397339   1.170639   0.413754 C.3        1 UNL1     0.0661
     43 C         7.003956   8.089312   -3.479017 C.2        1 UNL1     0.2131
     44 O         7.347155   9.041475   -4.156022 O.2        1 UNL1     -0.2851
     45 O         6.45895   10.519434   -2.189693 O.3        1 UNL1     -0.5056
     46 O         3.614226   5.001667   -0.256077 O.2        1 UNL1     -0.2836
     47 C         5.441867   1.601797   2.072616 C.3        1 UNL1     -0.0566
     48 O         3.947645   -0.205928   0.450424 O.3        1 UNL1     -0.3909
     49 C         0.916927   0.41759   -0.329369 C.3        1 UNL1     -0.0577
     50 O         1.184523   2.555304   2.561704 O.3        1 UNL1     -0.3910
     51 O         -1.143333   4.187281   2.355339 O.3        1 UNL1     -0.3753
     52 C         -0.139849   3.156914   -1.113875 C.3        1 UNL1     -0.0564
     53 O         -2.238647   0.819702   -0.194709 O.3        1 UNL1     -0.4608
     54 C         -2.378063   -0.513421   0.090379 C.2        1 UNL1     0.3042
     55 O         -1.637995   -1.432866   -0.257123 O.2        1 UNL1     -0.2512
     56 C         -3.552801   -0.819539   0.97525 C.3        1 UNL1     0.0332
     57 C         -1.772045   1.902813   3.319866 C.3        1 UNL1     -0.0567
     58 C         1.345604   7.307335   -0.884036 C.3        1 UNL1     0.0210
     59 C         -2.33157   4.707426   2.949819 C.3        1 UNL1     0.0372
     60 C         0.269512   5.172598   0.791413 C.2        1 UNL1     -0.0208
     61 C         1.13463   5.639467   1.692716 C.2        1 UNL1     0.0882
     62 H         4.487941   2.999117   0.760427 H        1 UNL1     0.0365
     63 H         6.077438   4.024744   -0.00887 H        1 UNL1     0.0576
     64 H         8.248955   2.098624   -1.04393 H        1 UNL1     0.0615
     65 H         7.95439   5.207638   -1.115473 H        1 UNL1     0.0622
     66 H         -1.805713   5.14084   0.679287 H        1 UNL1     0.0645
     67 H         -2.087264   3.464228   -0.589534 H        1 UNL1     0.0362
     68 H         -2.709975   2.216689   1.10512 H        1 UNL1     0.0741
     69 H         -1.243512   0.298393   2.198744 H        1 UNL1     0.0359
     70 H         0.828905   0.628852   2.970363 H        1 UNL1     0.0600
     71 H         1.825398   -0.368661   1.322126 H        1 UNL1     0.0348
     72 H         3.240973   1.6114   1.40904 H        1 UNL1     0.0602
     73 H         0.388075   5.418019   -0.234725 H        1 UNL1     0.0628
     74 H         1.116622   5.386736   2.753396 H        1 UNL1     0.1022
     75 H         10.780889   3.127135   -3.21477 H        1 UNL1     0.0279
     76 H         10.636819   4.422784   -4.334518 H        1 UNL1     0.0279
     77 H         11.686359   4.540866   -2.864886 H        1 UNL1     0.0279
     78 H         8.78171   5.601605   -4.678208 H        1 UNL1     0.1553
     79 H         7.610146   4.027515   -4.402704 H        1 UNL1     0.1484
     80 H         3.918196   3.157303   -4.630148 H        1 UNL1     0.0317
     81 H         4.544913   4.751589   -5.024361 H        1 UNL1     0.0317
     82 H         6.556131   3.749115   -6.139597 H        1 UNL1     0.0428
     83 H         5.04959   3.185615   -6.828439 H        1 UNL1     0.0428
     84 H         6.975792   0.578724   -4.072172 H        1 UNL1     0.0428
     85 H         7.784947   2.067511   -4.415544 H        1 UNL1     0.0428
     86 H         6.458816   1.961949   -2.304837 H        1 UNL1     0.0317
     87 H         4.995757   1.65627   -3.122376 H        1 UNL1     0.0317
     88 H         7.311194   1.65092   -7.213756 H        1 UNL1     0.0429
     89 H         7.045457   0.107778   -6.39869 H        1 UNL1     0.0429
     90 H         4.502645   1.210037   -7.38987 H        1 UNL1     0.0308
     91 H         6.80035   1.036467   -9.411475 H        1 UNL1     0.0233
     92 H         5.086983   0.889009   -9.878517 H        1 UNL1     0.0233
     93 H         5.68578   2.378098   -9.179475 H        1 UNL1     0.0233
     94 H         4.661937   -1.020483   -8.719675 H        1 UNL1     0.0233
     95 H         6.081572   -1.31547   -7.703826 H        1 UNL1     0.0233
     96 H         4.489853   -1.057819   -6.952801 H        1 UNL1     0.0233
     97 H         3.104615   10.960703   -0.516468 H        1 UNL1     0.0280
     98 H         4.320966   11.021249   0.730132 H        1 UNL1     0.0280
     99 H         4.668823   11.711518   -0.883018 H        1 UNL1     0.0280
     100 H         7.391171   10.390744   -2.184826 H        1 UNL1     0.2922
     101 H         4.548215   1.37704   2.654447 H        1 UNL1     0.0236
     102 H         6.092409   2.31302   2.580495 H        1 UNL1     0.0236
     103 H         6.012482   0.658165   2.060336 H        1 UNL1     0.0236
     104 H         4.283596   -0.365298   1.354143 H        1 UNL1     0.2098
     105 H         0.688408   1.315851   -0.897452 H        1 UNL1     0.0234
     106 H         1.327896   -0.349818   -0.985202 H        1 UNL1     0.0234
     107 H         0.0   -0.0   0.0 H        1 UNL1     0.0234
     108 H         1.086011   3.190792   1.826709 H        1 UNL1     0.2098
     109 H         -0.186717   4.045205   -1.759208 H        1 UNL1     0.0234
     110 H         0.881747   3.029079   -0.740055 H        1 UNL1     0.0234
     111 H         -0.288942   2.297049   -1.780469 H        1 UNL1     0.0234
     112 H         -4.085114   -1.697415   0.596671 H        1 UNL1     0.0342
     113 H         -3.257568   -0.959532   2.014039 H        1 UNL1     0.0342
     114 H         -4.242616   0.0348   0.937492 H        1 UNL1     0.0342
     115 H         -2.84578   1.675263   3.269845 H        1 UNL1     0.0234
     116 H         -1.400694   1.526046   4.274955 H        1 UNL1     0.0234
     117 H         -1.790021   3.005022   3.372347 H        1 UNL1     0.0234
     118 H         0.321394   7.230038   -0.479036 H        1 UNL1     0.0309
     119 H         1.450312   8.259438   -1.413885 H        1 UNL1     0.0309
     120 H         1.37256   6.527719   -1.653177 H        1 UNL1     0.0309
     121 H         -2.126326   4.872176   4.007216 H        1 UNL1     0.0524
     122 H         -2.62776   5.676242   2.514266 H        1 UNL1     0.0524
     123 H         -3.150109   4.002976   2.83219 H        1 UNL1     0.0524
@<TRIPOS>BOND
     1     1     2    1
     2     1    42    1
     3     2     3    2
     4     3     4    1
     5     4     5    2
     6     5     7    1
     7     6    75    1
     8     6    76    1
     9     6    77    1
    10     7     9   am
    11     9    10    1
    12    10    11    2
    13    10    43    1
    14    11    14    1
    15    11    15    1
    16    12    13   ar
    17    12    27   ar
    18    12    43    1
    19    13    14    1
    20    13    30   ar
    21    14    17    2
    22    15    16    1
    23    16    17    1
    24    16    18    1
    25    16    22    1
    26    18    19    1
    27    19    20    1
    28    20    21    1
    29    21    22    1
    30    23    24    1
    31    23    88    1
    32    23    89    1
    33    24    25    1
    34    24    26    1
    35    24    90    1
    36    25    91    1
    37    25    92    1
    38    25    93    1
    39    26    94    1
    40    26    95    1
    41    26    96    1
    42    27    28   ar
    43    28    29   ar
    44    29    30   ar
    45    29    31    1
    46    30    33    1
    47    31    32    1
    48    32    33    1
    49    32    35    1
    50    34    97    1
    51    34    98    1
    52    34    99    1
    53    35    61    1
    54    36    37    1
    55    36    60    1
    56    37    38    1
    57    38    39    1
    58    39    40    1
    59    40    41    1
    60    41    42    1
    61    45   100    1
    62    47   101    1
    63    47   102    1
    64    47   103    1
    65    48   104    1
    66    49   105    1
    67    49   106    1
    68    49   107    1
    69    50   108    1
    70    51    59    1
    71    52   109    1
    72    52   110    1
    73    52   111    1
    74    53    54    1
    75    54    55    2
    76    54    56    1
    77    56   112    1
    78    56   113    1
    79    56   114    1
    80    57   115    1
    81    57   116    1
    82    57   117    1
    83    58   118    1
    84    58   119    1
    85    58   120    1
    86    59   121    1
    87    59   122    1
    88    59   123    1
    89    60    61    2
    90     1    47    1
    91     1    62    1
    92     2    63    1
    93     3    64    1
    94     4    65    1
    95     5     6    1
    96     7     8    2
    97     9    78    1
    98    15    79    1
    99    18    80    1
   100    18    81    1
   101    19    82    1
   102    19    83    1
   103    20    23    1
   104    21    84    1
   105    21    85    1
   106    22    86    1
   107    22    87    1
   108    27    45    1
   109    28    34    1
   110    32    58    1
   111    33    46    2
   112    36    51    1
   113    36    66    1
   114    37    52    1
   115    37    67    1
   116    38    53    1
   117    38    68    1
   118    42    48    1
   119    42    72    1
   120    43    44    2
   121    60    73    1
   122    61    74    1
   123    39    69    1
   124    39    57    1
   125    40    70    1
   126    40    50    1
   127    41    71    1
   128    41    49    1
