@<TRIPOS>MOLECULE
*****
 123 128 0 0 0
SMALL
GASTEIGER

@<TRIPOS>ATOM
     1 C         4.33166   2.385731   -2.35463 C.3        1 UNL1     0.0009
     2 C         5.844289   2.137572   -3.397418 C.2        1 UNL1     -0.0787
     3 C         7.279446   1.985519   -3.512533 C.2        1 UNL1     -0.0649
     4 C         8.180092   1.629806   -4.901295 C.2        1 UNL1     -0.0542
     5 C         9.415107   1.136224   -5.389346 C.2        1 UNL1     0.0115
     6 C         10.857201   0.730852   -4.977812 C.3        1 UNL1     -0.0348
     7 C         9.505154   0.638054   -6.912733 C.2        1 UNL1     0.2441
     8 O         10.00922   1.308336   -7.803331 O.2        1 UNL1     -0.2702
     9 N         9.20436   -0.721391   -7.106598 N.am        1 UNL1     -0.2772
     10 C         7.852974   -0.89103   -7.302307 C.2        1 UNL1     0.1049
     11 C         7.109806   -0.949528   -6.212123 C.2        1 UNL1     0.0801
     12 C         5.915258   -0.020227   -8.623024 C.ar        1 UNL1     0.0753
     13 C         5.218888   0.094458   -7.377824 C.ar        1 UNL1     0.0305
     14 C         5.748685   -0.490581   -6.148151 C.2        1 UNL1     0.0924
     15 N         7.473422   -1.08056   -4.924822 N.pl3        1 UNL1     -0.3170
     16 C         6.277203   -1.265815   -4.147008 C.3        1 UNL1     0.1275
     17 N         5.199338   -0.567115   -4.939314 N.2        1 UNL1     -0.2557
     18 C         5.936766   -2.752458   -4.188221 C.3        1 UNL1     0.0016
     19 C         7.137831   -3.540409   -3.690059 C.3        1 UNL1     0.0026
     20 N         7.448675   -3.111482   -2.333436 N.3        1 UNL1     -0.3018
     21 C         7.730121   -1.682383   -2.182329 C.3        1 UNL1     0.0026
     22 C         6.508861   -0.910119   -2.684352 C.3        1 UNL1     0.0016
     23 C         8.376566   -3.998319   -1.66025 C.3        1 UNL1     0.0012
     24 C         7.700888   -5.340261   -1.337129 C.3        1 UNL1     -0.0339
     25 C         7.997215   -6.393576   -2.417303 C.3        1 UNL1     -0.0615
     26 C         8.124589   -5.8182   0.040852 C.3        1 UNL1     -0.0615
     27 C         5.348153   0.433491   -9.811574 C.ar        1 UNL1     0.1347
     28 C         4.079829   0.981112   -9.885848 C.ar        1 UNL1     0.0342
     29 C         3.432752   1.128756   -8.640594 C.ar        1 UNL1     0.1435
     30 C         4.003284   0.711943   -7.437273 C.ar        1 UNL1     0.0774
     31 O         2.149896   1.544014   -8.557847 O.3        1 UNL1     -0.4436
     32 C         1.715209   1.121622   -7.256499 C.3        1 UNL1     0.3143
     33 C         2.98502   0.976696   -6.442381 C.2        1 UNL1     0.2504
     34 C         3.310746   1.256178   -11.147969 C.3        1 UNL1     -0.0327
     35 O         0.973194   2.204933   -6.682823 O.2        1 UNL1     -0.4528
     36 C         -1.592249   0.607851   -4.385887 C.3        1 UNL1     0.0854
     37 C         -1.367642   -0.365241   -3.165163 C.3        1 UNL1     0.0236
     38 C         -2.020925   0.121421   -1.783814 C.3        1 UNL1     0.1131
     39 C         -1.74252   1.586723   -1.256888 C.3        1 UNL1     0.0200
     40 C         -0.204952   2.230187   -1.322291 C.3        1 UNL1     0.0661
     41 C         1.211374   1.477922   -0.769362 C.3        1 UNL1     0.0091
     42 C         2.935306   1.586039   -1.387237 C.3        1 UNL1     0.0661
     43 C         7.224126   -0.719597   -8.620455 C.2        1 UNL1     0.2131
     44 O         7.720313   -1.22279   -9.612086 O.2        1 UNL1     -0.2851
     45 O         6.111033   0.326086   -10.972572 O.3        1 UNL1     -0.5056
     46 O         3.127889   1.078938   -5.244471 O.2        1 UNL1     -0.2836
     47 C         4.24251   3.859829   -1.876019 C.3        1 UNL1     -0.0566
     48 O         3.524713   1.796725   -0.042868 O.3        1 UNL1     -0.3909
     49 C         0.922049   0.014038   -0.522732 C.3        1 UNL1     -0.0577
     50 O         0.029848   2.840953   -2.57511 O.3        1 UNL1     -0.3910
     51 O         -2.179198   1.852911   -4.081342 O.3        1 UNL1     -0.3753
     52 C         0.032724   -1.058424   -3.223667 C.3        1 UNL1     -0.0564
     53 O         -2.101711   -0.958173   -0.74445 O.3        1 UNL1     -0.4608
     54 C         -2.236524   -0.755126   0.604078 C.2        1 UNL1     0.3042
     55 O         -1.403698   -0.982996   1.480613 O.2        1 UNL1     -0.2512
     56 C         -3.54748   -0.131444   0.990251 C.3        1 UNL1     0.0332
     57 C         -2.957851   2.51015   -1.734829 C.3        1 UNL1     -0.0567
     58 C         1.078215   -0.275522   -7.44023 C.3        1 UNL1     0.0210
     59 C         -2.931761   2.436685   -5.143755 C.3        1 UNL1     0.0372
     60 C         -0.375903   0.893099   -5.194773 C.2        1 UNL1     -0.0208
     61 C         0.08973   2.045323   -5.678831 C.2        1 UNL1     0.0882
     62 H         3.718399   2.313335   -3.260931 H        1 UNL1     0.0365
     63 H         5.407678   2.160185   -4.398082 H        1 UNL1     0.0576
     64 H         7.921438   1.927133   -2.630748 H        1 UNL1     0.0615
     65 H         7.473252   1.793346   -5.71929 H        1 UNL1     0.0622
     66 H         -2.275743   0.062278   -5.051645 H        1 UNL1     0.0645
     67 H         -1.990733   -1.24435   -3.404921 H        1 UNL1     0.0362
     68 H         -3.083891   0.111075   -2.06933 H        1 UNL1     0.0741
     69 H         -1.971207   1.625902   -0.200206 H        1 UNL1     0.0359
     70 H         -0.322599   3.077061   -0.619422 H        1 UNL1     0.0600
     71 H         1.246671   1.869635   0.266144 H        1 UNL1     0.0348
     72 H         2.414511   2.46894   -1.785449 H        1 UNL1     0.0602
     73 H         0.076668   -0.023929   -5.480233 H        1 UNL1     0.0628
     74 H         -0.280356   3.029775   -5.390512 H        1 UNL1     0.1022
     75 H         11.004033   0.866289   -3.879117 H        1 UNL1     0.0279
     76 H         11.12812   -0.312434   -5.12351 H        1 UNL1     0.0279
     77 H         11.621875   1.409097   -5.383963 H        1 UNL1     0.0279
     78 H         9.462451   -1.250597   -6.276293 H        1 UNL1     0.1553
     79 H         8.370839   -1.420349   -4.631364 H        1 UNL1     0.1484
     80 H         5.052364   -2.934104   -3.565642 H        1 UNL1     0.0317
     81 H         5.674444   -3.065782   -5.204423 H        1 UNL1     0.0317
     82 H         8.007493   -3.419224   -4.352565 H        1 UNL1     0.0428
     83 H         6.874123   -4.597743   -3.729453 H        1 UNL1     0.0428
     84 H         7.881655   -1.372596   -1.143638 H        1 UNL1     0.0428
     85 H         8.663367   -1.3941   -2.68558 H        1 UNL1     0.0428
     86 H         6.69488   0.118516   -2.436774 H        1 UNL1     0.0317
     87 H         5.630602   -1.16237   -2.077618 H        1 UNL1     0.0317
     88 H         9.221035   -4.18604   -2.336214 H        1 UNL1     0.0429
     89 H         8.786786   -3.533311   -0.754567 H        1 UNL1     0.0429
     90 H         6.61588   -5.192078   -1.282247 H        1 UNL1     0.0308
     91 H         9.073528   -6.552084   -2.533606 H        1 UNL1     0.0233
     92 H         7.519212   -7.344587   -2.170931 H        1 UNL1     0.0233
     93 H         7.61031   -6.102779   -3.401467 H        1 UNL1     0.0233
     94 H         7.802023   -6.853235   0.197344 H        1 UNL1     0.0233
     95 H         9.214277   -5.787833   0.128149 H        1 UNL1     0.0233
     96 H         7.689858   -5.19776   0.829543 H        1 UNL1     0.0233
     97 H         2.320788   1.652968   -10.943588 H        1 UNL1     0.0280
     98 H         3.808441   2.001818   -11.78167 H        1 UNL1     0.0280
     99 H         3.196867   0.321901   -11.721775 H        1 UNL1     0.0280
     100 H         5.687548   -0.129868   -11.678538 H        1 UNL1     0.2922
     101 H         3.328739   4.004778   -1.300113 H        1 UNL1     0.0236
     102 H         4.332709   4.5804   -2.688192 H        1 UNL1     0.0236
     103 H         5.056774   4.118842   -1.178825 H        1 UNL1     0.0236
     104 H         3.61574   2.760371   0.091559 H        1 UNL1     0.2098
     105 H         0.801337   -0.57833   -1.426247 H        1 UNL1     0.0234
     106 H         1.613051   -0.477671   0.161859 H        1 UNL1     0.0234
     107 H         0.0   0.0   0.0 H        1 UNL1     0.0234
     108 H         -0.002444   2.137245   -3.251513 H        1 UNL1     0.2098
     109 H         0.857206   -0.331882   -3.214823 H        1 UNL1     0.0234
     110 H         0.183055   -1.792973   -2.42518 H        1 UNL1     0.0234
     111 H         0.158449   -1.639452   -4.147001 H        1 UNL1     0.0234
     112 H         -3.588289   0.007614   2.074845 H        1 UNL1     0.0342
     113 H         -3.723228   0.808353   0.468966 H        1 UNL1     0.0342
     114 H         -4.352886   -0.823796   0.708945 H        1 UNL1     0.0342
     115 H         -3.918337   2.163201   -1.329513 H        1 UNL1     0.0234
     116 H         -2.848567   3.562477   -1.465176 H        1 UNL1     0.0234
     117 H         -3.15202   2.454997   -2.819817 H        1 UNL1     0.0234
     118 H         0.028596   -0.211629   -7.776716 H        1 UNL1     0.0309
     119 H         1.637294   -0.915189   -8.13049 H        1 UNL1     0.0309
     120 H         1.008415   -0.832673   -6.499583 H        1 UNL1     0.0309
     121 H         -2.246742   2.619822   -5.971141 H        1 UNL1     0.0524
     122 H         -3.725421   1.765575   -5.512201 H        1 UNL1     0.0524
     123 H         -3.382421   3.369461   -4.816757 H        1 UNL1     0.0524
@<TRIPOS>BOND
     1     1     2    1
     2     1    42    1
     3     2     3    2
     4     3     4    1
     5     4     5    2
     6     5     7    1
     7     6    75    1
     8     6    76    1
     9     6    77    1
    10     7     9   am
    11     9    10    1
    12    10    11    2
    13    10    43    1
    14    11    14    1
    15    11    15    1
    16    12    13   ar
    17    12    27   ar
    18    12    43    1
    19    13    14    1
    20    13    30   ar
    21    14    17    2
    22    15    16    1
    23    16    17    1
    24    16    18    1
    25    16    22    1
    26    18    19    1
    27    19    20    1
    28    20    21    1
    29    21    22    1
    30    23    24    1
    31    23    88    1
    32    23    89    1
    33    24    25    1
    34    24    26    1
    35    24    90    1
    36    25    91    1
    37    25    92    1
    38    25    93    1
    39    26    94    1
    40    26    95    1
    41    26    96    1
    42    27    28   ar
    43    28    29   ar
    44    29    30   ar
    45    29    31    1
    46    30    33    1
    47    31    32    1
    48    32    33    1
    49    32    35    1
    50    34    97    1
    51    34    98    1
    52    34    99    1
    53    35    61    1
    54    36    37    1
    55    36    60    1
    56    37    38    1
    57    38    39    1
    58    39    40    1
    59    40    41    1
    60    41    42    1
    61    45   100    1
    62    47   101    1
    63    47   102    1
    64    47   103    1
    65    48   104    1
    66    49   105    1
    67    49   106    1
    68    49   107    1
    69    50   108    1
    70    51    59    1
    71    52   109    1
    72    52   110    1
    73    52   111    1
    74    53    54    1
    75    54    55    2
    76    54    56    1
    77    56   112    1
    78    56   113    1
    79    56   114    1
    80    57   115    1
    81    57   116    1
    82    57   117    1
    83    58   118    1
    84    58   119    1
    85    58   120    1
    86    59   121    1
    87    59   122    1
    88    59   123    1
    89    60    61    2
    90     1    47    1
    91     1    62    1
    92     2    63    1
    93     3    64    1
    94     4    65    1
    95     5     6    1
    96     7     8    2
    97     9    78    1
    98    15    79    1
    99    18    80    1
   100    18    81    1
   101    19    82    1
   102    19    83    1
   103    20    23    1
   104    21    84    1
   105    21    85    1
   106    22    86    1
   107    22    87    1
   108    27    45    1
   109    28    34    1
   110    32    58    1
   111    33    46    2
   112    36    51    1
   113    36    66    1
   114    37    52    1
   115    37    67    1
   116    38    53    1
   117    38    68    1
   118    42    48    1
   119    42    72    1
   120    43    44    2
   121    60    73    1
   122    61    74    1
   123    39    69    1
   124    39    57    1
   125    40    70    1
   126    40    50    1
   127    41    71    1
   128    41    49    1
