@<TRIPOS>MOLECULE
*****
 123 128 0 0 0
SMALL
GASTEIGER

@<TRIPOS>ATOM
     1 C         2.087438   4.048106   -3.044207 C.3        1 UNL1     0.0009
     2 C         3.415477   4.539631   -4.240766 C.2        1 UNL1     -0.0787
     3 C         4.67241   5.201641   -4.519886 C.2        1 UNL1     -0.0649
     4 C         5.542769   5.212545   -5.972027 C.2        1 UNL1     -0.0542
     5 C         6.811702   5.429492   -6.563484 C.2        1 UNL1     0.0115
     6 C         8.245773   5.965568   -6.300072 C.3        1 UNL1     -0.0348
     7 C         7.092325   4.851034   -8.034411 C.2        1 UNL1     0.2441
     8 O         7.077313   5.549924   -9.03833 O.2        1 UNL1     -0.2702
     9 N         7.612137   3.545262   -8.064512 N.am        1 UNL1     -0.2772
     10 C         6.591683   2.622271   -8.07363 C.2        1 UNL1     0.1049
     11 C         6.071646   2.31792   -6.898405 C.2        1 UNL1     0.0801
     12 C         4.439456   2.05597   -9.215802 C.ar        1 UNL1     0.0753
     13 C         3.866784   1.941729   -7.909049 C.ar        1 UNL1     0.0305
     14 C         4.697556   1.940264   -6.707023 C.2        1 UNL1     0.0924
     15 N         6.509972   2.602332   -5.660056 N.pl3        1 UNL1     -0.3170
     16 C         5.675161   1.895508   -4.725312 C.3        1 UNL1     0.1275
     17 N         4.352678   1.746946   -5.437135 N.2        1 UNL1     -0.2557
     18 C         6.242887   0.486058   -4.588056 C.3        1 UNL1     0.0016
     19 C         7.702297   0.587785   -4.174095 C.3        1 UNL1     0.0026
     20 N         7.781209   1.309675   -2.911686 N.3        1 UNL1     -0.3018
     21 C         7.203597   2.655214   -2.92776 C.3        1 UNL1     0.0026
     22 C         5.736398   2.528826   -3.341584 C.3        1 UNL1     0.0016
     23 C         9.08215   1.203445   -2.281678 C.3        1 UNL1     0.0012
     24 C         9.311116   -0.222306   -1.755782 C.3        1 UNL1     -0.0339
     25 C         10.144343   -0.218025   -0.463586 C.3        1 UNL1     -0.0615
     26 C         7.979115   -0.925231   -1.559697 C.3        1 UNL1     -0.0615
     27 C         3.655184   1.935418   -10.360574 C.ar        1 UNL1     0.1347
     28 C         2.299465   1.661848   -10.325445 C.ar        1 UNL1     0.0342
     29 C         1.748369   1.602084   -9.027799 C.ar        1 UNL1     0.1435
     30 C         2.51513   1.75682   -7.872224 C.ar        1 UNL1     0.0774
     31 O         0.46431   1.235306   -8.823661 O.3        1 UNL1     -0.4436
     32 C         0.415561   0.837445   -7.445183 C.3        1 UNL1     0.3143
     33 C         1.580267   1.548407   -6.78624 C.2        1 UNL1     0.2504
     34 C         1.447942   1.271799   -11.501401 C.3        1 UNL1     -0.0327
     35 O         -0.78174   1.38997   -6.884437 O.2        1 UNL1     -0.4528
     36 C         -1.85507   -1.013041   -4.149187 C.3        1 UNL1     0.0854
     37 C         -1.053276   -1.503166   -2.882528 C.3        1 UNL1     0.0236
     38 C         -1.796084   -1.269925   -1.480537 C.3        1 UNL1     0.1131
     39 C         -2.377717   0.158308   -1.128228 C.3        1 UNL1     0.0200
     40 C         -1.488527   1.533946   -1.443508 C.3        1 UNL1     0.0661
     41 C         0.129684   1.793209   -1.005576 C.3        1 UNL1     0.0091
     42 C         1.449097   2.75566   -1.841183 C.3        1 UNL1     0.0661
     43 C         5.911385   2.21794   -9.313011 C.2        1 UNL1     0.2131
     44 O         6.554755   1.940212   -10.308843 O.2        1 UNL1     -0.2851
     45 O         4.282487   2.105098   -11.593108 O.3        1 UNL1     -0.5056
     46 O         1.699972   1.886611   -5.629891 O.2        1 UNL1     -0.2836
     47 C         1.197144   5.270841   -2.694529 C.3        1 UNL1     -0.0566
     48 O         1.880245   3.453533   -0.605787 O.3        1 UNL1     -0.3909
     49 C         0.740959   0.472937   -0.592394 C.3        1 UNL1     -0.0577
     50 O         -1.708647   1.980766   -2.766241 O.3        1 UNL1     -0.3910
     51 O         -3.031366   -0.281077   -3.88844 O.3        1 UNL1     -0.3753
     52 C         0.486985   -1.293876   -3.052067 C.3        1 UNL1     -0.0564
     53 O         -1.192962   -2.044269   -0.345212 O.3        1 UNL1     -0.4608
     54 C         -1.070775   -1.598607   0.944899 C.2        1 UNL1     0.3042
     55 O         -0.054921   -1.177007   1.49638 O.2        1 UNL1     -0.2512
     56 C         -2.366258   -1.595827   1.705445 C.3        1 UNL1     0.0332
     57 C         -3.925135   0.162089   -1.532774 C.3        1 UNL1     -0.0567
     58 C         0.681929   -0.685689   -7.419847 C.3        1 UNL1     0.0210
     59 C         -4.245059   -0.979888   -4.161347 C.3        1 UNL1     0.0372
     60 C         -1.06244   -0.217907   -5.126254 C.2        1 UNL1     -0.0208
     61 C         -1.363398   0.91205   -5.767631 C.2        1 UNL1     0.0882
     62 H         1.580101   3.513666   -3.856423 H        1 UNL1     0.0365
     63 H         2.993837   4.167761   -5.176929 H        1 UNL1     0.0576
     64 H         5.276711   5.641867   -3.723564 H        1 UNL1     0.0615
     65 H         4.828544   4.831148   -6.706807 H        1 UNL1     0.0622
     66 H         -2.137551   -1.937734   -4.671866 H        1 UNL1     0.0645
     67 H         -1.074137   -2.604025   -2.961482 H        1 UNL1     0.0362
     68 H         -2.675724   -1.914703   -1.628919 H        1 UNL1     0.0741
     69 H         -2.533656   0.216582   -0.059259 H        1 UNL1     0.0359
     70 H         -2.032644   2.261708   -0.81156 H        1 UNL1     0.0600
     71 H         -0.012297   2.283713   -0.022619 H        1 UNL1     0.0348
     72 H         0.497987   3.12656   -2.250009 H        1 UNL1     0.0602
     73 H         -0.18257   -0.754613   -5.38125 H        1 UNL1     0.0628
     74 H         -2.214029   1.550332   -5.526256 H        1 UNL1     0.1022
     75 H         8.205767   6.954393   -5.782715 H        1 UNL1     0.0279
     76 H         8.868738   5.376178   -5.63104 H        1 UNL1     0.0279
     77 H         8.778893   6.226733   -7.225964 H        1 UNL1     0.0279
     78 H         8.168053   3.379055   -7.228205 H        1 UNL1     0.1553
     79 H         7.454271   2.869973   -5.451248 H        1 UNL1     0.1484
     80 H         5.653616   -0.066039   -3.845954 H        1 UNL1     0.0317
     81 H         6.15507   -0.064675   -5.530729 H        1 UNL1     0.0317
     82 H         8.311977   1.076476   -4.948294 H        1 UNL1     0.0428
     83 H         8.087879   -0.428193   -4.08374 H        1 UNL1     0.0428
     84 H         7.203797   3.144365   -1.948708 H        1 UNL1     0.0428
     85 H         7.778085   3.339062   -3.567785 H        1 UNL1     0.0428
     86 H         5.314146   3.508315   -3.213939 H        1 UNL1     0.0317
     87 H         5.191664   1.920244   -2.60947 H        1 UNL1     0.0317
     88 H         9.846866   1.424035   -3.037881 H        1 UNL1     0.0429
     89 H         9.198925   1.944547   -1.480487 H        1 UNL1     0.0429
     90 H         9.847526   -0.803447   -2.515223 H        1 UNL1     0.0308
     91 H         10.368295   -1.236153   -0.131376 H        1 UNL1     0.0233
     92 H         11.080642   0.325727   -0.609486 H        1 UNL1     0.0233
     93 H         9.627162   0.280497   0.365169 H        1 UNL1     0.0233
     94 H         8.138435   -1.929846   -1.153247 H        1 UNL1     0.0233
     95 H         7.363473   -0.367526   -0.848421 H        1 UNL1     0.0233
     96 H         7.433472   -1.016636   -2.503035 H        1 UNL1     0.0233
     97 H         0.972872   0.305905   -11.357919 H        1 UNL1     0.0280
     98 H         0.631888   1.98509   -11.676126 H        1 UNL1     0.0280
     99 H         2.072806   1.218303   -12.407921 H        1 UNL1     0.0280
     100 H         4.818348   2.876079   -11.656849 H        1 UNL1     0.2922
     101 H         1.826357   6.117509   -2.420848 H        1 UNL1     0.0236
     102 H         0.450131   5.053065   -1.931949 H        1 UNL1     0.0236
     103 H         0.616956   5.622794   -3.563841 H        1 UNL1     0.0236
     104 H         1.389844   3.059485   0.142012 H        1 UNL1     0.2098
     105 H         0.978648   -0.19053   -1.420118 H        1 UNL1     0.0234
     106 H         1.593601   0.55689   0.081313 H        1 UNL1     0.0234
     107 H         0.0   0.0   0.0 H        1 UNL1     0.0234
     108 H         -1.010683   2.632011   -2.972385 H        1 UNL1     0.2098
     109 H         0.891441   -1.854625   -3.906284 H        1 UNL1     0.0234
     110 H         0.77117   -0.23957   -3.138213 H        1 UNL1     0.0234
     111 H         1.042706   -1.648464   -2.17378 H        1 UNL1     0.0234
     112 H         -2.910484   -2.526216   1.516922 H        1 UNL1     0.0342
     113 H         -2.2143   -1.441447   2.772646 H        1 UNL1     0.0342
     114 H         -2.980928   -0.764746   1.333089 H        1 UNL1     0.0342
     115 H         -4.524183   0.780562   -0.850264 H        1 UNL1     0.0234
     116 H         -4.117596   0.513238   -2.548501 H        1 UNL1     0.0234
     117 H         -4.413314   -0.820505   -1.413897 H        1 UNL1     0.0234
     118 H         -0.218718   -1.259477   -7.139475 H        1 UNL1     0.0309
     119 H         1.070355   -1.069746   -8.368439 H        1 UNL1     0.0309
     120 H         1.412078   -0.972066   -6.65501 H        1 UNL1     0.0309
     121 H         -5.021064   -0.235865   -4.339116 H        1 UNL1     0.0524
     122 H         -4.172661   -1.606653   -5.065759 H        1 UNL1     0.0524
     123 H         -4.514746   -1.608487   -3.317412 H        1 UNL1     0.0524
@<TRIPOS>BOND
     1     1     2    1
     2     1    42    1
     3     2     3    2
     4     3     4    1
     5     4     5    2
     6     5     7    1
     7     6    75    1
     8     6    76    1
     9     6    77    1
    10     7     9   am
    11     9    10    1
    12    10    11    2
    13    10    43    1
    14    11    14    1
    15    11    15    1
    16    12    13   ar
    17    12    27   ar
    18    12    43    1
    19    13    14    1
    20    13    30   ar
    21    14    17    2
    22    15    16    1
    23    16    17    1
    24    16    18    1
    25    16    22    1
    26    18    19    1
    27    19    20    1
    28    20    21    1
    29    21    22    1
    30    23    24    1
    31    23    88    1
    32    23    89    1
    33    24    25    1
    34    24    26    1
    35    24    90    1
    36    25    91    1
    37    25    92    1
    38    25    93    1
    39    26    94    1
    40    26    95    1
    41    26    96    1
    42    27    28   ar
    43    28    29   ar
    44    29    30   ar
    45    29    31    1
    46    30    33    1
    47    31    32    1
    48    32    33    1
    49    32    35    1
    50    34    97    1
    51    34    98    1
    52    34    99    1
    53    35    61    1
    54    36    37    1
    55    36    60    1
    56    37    38    1
    57    38    39    1
    58    39    40    1
    59    40    41    1
    60    41    42    1
    61    45   100    1
    62    47   101    1
    63    47   102    1
    64    47   103    1
    65    48   104    1
    66    49   105    1
    67    49   106    1
    68    49   107    1
    69    50   108    1
    70    51    59    1
    71    52   109    1
    72    52   110    1
    73    52   111    1
    74    53    54    1
    75    54    55    2
    76    54    56    1
    77    56   112    1
    78    56   113    1
    79    56   114    1
    80    57   115    1
    81    57   116    1
    82    57   117    1
    83    58   118    1
    84    58   119    1
    85    58   120    1
    86    59   121    1
    87    59   122    1
    88    59   123    1
    89    60    61    2
    90     1    47    1
    91     1    62    1
    92     2    63    1
    93     3    64    1
    94     4    65    1
    95     5     6    1
    96     7     8    2
    97     9    78    1
    98    15    79    1
    99    18    80    1
   100    18    81    1
   101    19    82    1
   102    19    83    1
   103    20    23    1
   104    21    84    1
   105    21    85    1
   106    22    86    1
   107    22    87    1
   108    27    45    1
   109    28    34    1
   110    32    58    1
   111    33    46    2
   112    36    51    1
   113    36    66    1
   114    37    52    1
   115    37    67    1
   116    38    53    1
   117    38    68    1
   118    42    48    1
   119    42    72    1
   120    43    44    2
   121    60    73    1
   122    61    74    1
   123    39    69    1
   124    39    57    1
   125    40    70    1
   126    40    50    1
   127    41    71    1
   128    41    49    1
