@<TRIPOS>MOLECULE
*****
 123 128 0 0 0
SMALL
GASTEIGER

@<TRIPOS>ATOM
     1 C         -1.265829   1.079581   -5.124321 C.3        1 UNL1     0.0009
     2 C         -2.639929   1.687609   -6.210226 C.2        1 UNL1     -0.0787
     3 C         -3.635905   1.441993   -7.231866 C.2        1 UNL1     -0.0649
     4 C         -4.826235   2.502865   -7.801098 C.2        1 UNL1     -0.0542
     5 C         -6.066496   2.600498   -8.478813 C.2        1 UNL1     0.0115
     6 C         -7.110755   1.80472   -9.309224 C.3        1 UNL1     -0.0348
     7 C         -6.922835   3.951307   -8.341025 C.2        1 UNL1     0.2441
     8 O         -6.963299   4.805656   -9.215655 O.2        1 UNL1     -0.2702
     9 N         -7.82727   3.968123   -7.264983 N.am        1 UNL1     -0.2772
     10 C         -7.211103   4.435854   -6.127052 C.2        1 UNL1     0.1049
     11 C         -6.510716   3.552279   -5.43932 C.2        1 UNL1     0.0801
     12 C         -5.776198   6.297277   -5.270613 C.ar        1 UNL1     0.0753
     13 C         -4.929135   5.284836   -4.717388 C.ar        1 UNL1     0.0305
     14 C         -5.340751   3.883565   -4.671981 C.2        1 UNL1     0.0924
     15 N         -6.464582   2.213375   -5.547649 N.pl3        1 UNL1     -0.3170
     16 C         -5.679536   1.710648   -4.451646 C.3        1 UNL1     0.1275
     17 N         -4.735425   2.838763   -4.114401 N.2        1 UNL1     -0.2557
     18 C         -6.613996   1.568144   -3.254074 C.3        1 UNL1     0.0016
     19 C         -7.780785   0.67779   -3.650887 C.3        1 UNL1     0.0026
     20 N         -7.260575   -0.617428   -4.066604 N.3        1 UNL1     -0.3018
     21 C         -6.303989   -0.576679   -5.174598 C.3        1 UNL1     0.0026
     22 C         -5.1382   0.319261   -4.752554 C.3        1 UNL1     0.0016
     23 C         -8.291605   -1.629995   -4.177639 C.3        1 UNL1     0.0012
     24 C         -8.933794   -1.594004   -5.573367 C.3        1 UNL1     -0.0339
     25 C         -9.072181   -3.006274   -6.165313 C.3        1 UNL1     -0.0615
     26 C         -10.272817   -0.879817   -5.512269 C.3        1 UNL1     -0.0615
     27 C         -5.430319   7.644759   -5.201504 C.ar        1 UNL1     0.1347
     28 C         -4.286868   8.102637   -4.571491 C.ar        1 UNL1     0.0342
     29 C         -3.444018   7.084603   -4.077148 C.ar        1 UNL1     0.1435
     30 C         -3.75988   5.728647   -4.171139 C.ar        1 UNL1     0.0774
     31 O         -2.348125   7.372315   -3.341453 O.3        1 UNL1     -0.4436
     32 C         -2.046272   6.152129   -2.647979 C.3        1 UNL1     0.3143
     33 C         -2.67901   5.055968   -3.481218 C.2        1 UNL1     0.2504
     34 C         -3.977231   9.535646   -4.238761 C.3        1 UNL1     -0.0327
     35 O         -0.627634   5.962577   -2.717188 O.2        1 UNL1     -0.4528
     36 C         0.324656   4.072455   0.433791 C.3        1 UNL1     0.0854
     37 C         -0.202434   2.681882   0.959154 C.3        1 UNL1     0.0236
     38 C         0.938556   1.594268   1.254084 C.3        1 UNL1     0.1131
     39 C         2.029498   1.282208   0.151934 C.3        1 UNL1     0.0200
     40 C         1.588472   1.104663   -1.446944 C.3        1 UNL1     0.0661
     41 C         0.336689   0.118731   -2.028828 C.3        1 UNL1     0.0091
     42 C         -0.774028   0.333762   -3.472944 C.3        1 UNL1     0.0661
     43 C         -7.078456   5.872208   -5.841316 C.2        1 UNL1     0.2131
     44 O         -8.029969   6.619821   -5.977089 O.2        1 UNL1     -0.2851
     45 O         -6.287646   8.562593   -5.804836 O.3        1 UNL1     -0.5056
     46 O         -2.350929   3.894102   -3.572232 O.2        1 UNL1     -0.2836
     47 C         0.03562   0.899641   -5.951263 C.3        1 UNL1     -0.0566
     48 O         -0.587036   -1.051804   -3.967267 O.3        1 UNL1     -0.3909
     49 C         -0.530231   -0.307122   -0.864957 C.3        1 UNL1     -0.0577
     50 O         1.560873   2.357192   -2.101262 O.3        1 UNL1     -0.3910
     51 O         1.698586   4.133313   0.123885 O.3        1 UNL1     -0.3753
     52 C         -1.571218   2.295382   0.30954 C.3        1 UNL1     -0.0564
     53 O         0.460781   0.428773   2.069975 O.3        1 UNL1     -0.4608
     54 C         1.059841   -0.802523   2.124442 C.2        1 UNL1     0.3042
     55 O         0.699814   -1.833952   1.558427 O.2        1 UNL1     -0.2512
     56 C         2.323745   -0.821015   2.93618 C.3        1 UNL1     0.0332
     57 C         3.312836   2.180174   0.475778 C.3        1 UNL1     -0.0567
     58 C         -2.777547   6.229772   -1.287561 C.3        1 UNL1     0.0210
     59 C         2.250273   5.448989   0.101459 C.3        1 UNL1     0.0372
     60 C         -0.405371   4.617808   -0.742989 C.2        1 UNL1     -0.0208
     61 C         0.055138   5.176026   -1.863287 C.2        1 UNL1     0.0882
     62 H         -1.211532   2.07537   -4.668067 H        1 UNL1     0.0365
     63 H         -2.644663   2.749844   -5.957039 H        1 UNL1     0.0576
     64 H         -3.81296   0.440209   -7.629594 H        1 UNL1     0.0615
     65 H         -4.513454   3.476843   -7.415069 H        1 UNL1     0.0622
     66 H         0.129974   4.771266   1.259508 H        1 UNL1     0.0645
     67 H         -0.565851   2.900603   1.978295 H        1 UNL1     0.0362
     68 H         1.479477   2.109689   2.062334 H        1 UNL1     0.0741
     69 H         2.490106   0.329772   0.378019 H        1 UNL1     0.0359
     70 H         2.495203   0.606815   -1.840704 H        1 UNL1     0.0600
     71 H         0.901848   -0.812321   -2.230561 H        1 UNL1     0.0348
     72 H         0.09022   0.988966   -3.654875 H        1 UNL1     0.0602
     73 H         -1.446415   4.626888   -0.534679 H        1 UNL1     0.0628
     74 H         1.099189   5.157081   -2.177671 H        1 UNL1     0.1022
     75 H         -6.699757   1.550694   -10.315994 H        1 UNL1     0.0279
     76 H         -7.398598   0.830288   -8.921025 H        1 UNL1     0.0279
     77 H         -7.988898   2.409184   -9.579759 H        1 UNL1     0.0279
     78 H         -8.147742   3.021337   -7.072704 H        1 UNL1     0.1553
     79 H         -7.170161   1.667078   -6.006617 H        1 UNL1     0.1484
     80 H         -6.054079   1.143149   -2.412267 H        1 UNL1     0.0317
     81 H         -6.980206   2.546506   -2.92491 H        1 UNL1     0.0317
     82 H         -8.388884   1.133818   -4.445976 H        1 UNL1     0.0428
     83 H         -8.435453   0.591043   -2.783168 H        1 UNL1     0.0428
     84 H         -5.868638   -1.551777   -5.414313 H        1 UNL1     0.0428
     85 H         -6.778754   -0.25849   -6.113039 H        1 UNL1     0.0428
     86 H         -4.401026   0.219478   -5.527542 H        1 UNL1     0.0317
     87 H         -4.639744   -0.104322   -3.872091 H        1 UNL1     0.0317
     88 H         -7.822594   -2.612174   -4.033948 H        1 UNL1     0.0429
     89 H         -9.048223   -1.516661   -3.390582 H        1 UNL1     0.0429
     90 H         -8.305063   -0.994911   -6.242694 H        1 UNL1     0.0308
     91 H         -9.40279   -3.724054   -5.408615 H        1 UNL1     0.0233
     92 H         -9.781404   -3.009017   -6.996339 H        1 UNL1     0.0233
     93 H         -8.125448   -3.38408   -6.570028 H        1 UNL1     0.0233
     94 H         -10.897769   -1.175629   -6.361838 H        1 UNL1     0.0233
     95 H         -10.800529   -1.153172   -4.594249 H        1 UNL1     0.0233
     96 H         -10.147298   0.206272   -5.537219 H        1 UNL1     0.0233
     97 H         -3.82415   9.682753   -3.173793 H        1 UNL1     0.0280
     98 H         -3.056958   9.883986   -4.725602 H        1 UNL1     0.0280
     99 H         -4.813582   10.178027   -4.559635 H        1 UNL1     0.0280
     100 H         -6.536867   8.345041   -6.685848 H        1 UNL1     0.2922
     101 H         0.723871   1.716753   -5.736101 H        1 UNL1     0.0236
     102 H         -0.14716   0.78945   -7.019641 H        1 UNL1     0.0236
     103 H         0.585587   -0.012296   -5.664731 H        1 UNL1     0.0236
     104 H         0.182579   -1.048775   -4.569474 H        1 UNL1     0.2098
     105 H         -1.51001   0.163169   -0.839067 H        1 UNL1     0.0234
     106 H         -0.62536   -1.38551   -0.73864 H        1 UNL1     0.0234
     107 H         0.0   0.0   0.0 H        1 UNL1     0.0234
     108 H         1.026699   2.24941   -2.9117 H        1 UNL1     0.2098
     109 H         -1.507072   2.225529   -0.78532 H        1 UNL1     0.0234
     110 H         -1.991828   1.367508   0.711882 H        1 UNL1     0.0234
     111 H         -2.343559   3.048638   0.514578 H        1 UNL1     0.0234
     112 H         2.76075   -1.82409   2.921626 H        1 UNL1     0.0342
     113 H         3.041454   -0.077149   2.59354 H        1 UNL1     0.0342
     114 H         2.066588   -0.580768   3.977005 H        1 UNL1     0.0342
     115 H         3.646377   2.056041   1.515264 H        1 UNL1     0.0234
     116 H         4.169757   1.979216   -0.17025 H        1 UNL1     0.0234
     117 H         3.11009   3.26456   0.44509 H        1 UNL1     0.0234
     118 H         -3.177368   5.249164   -0.97522 H        1 UNL1     0.0309
     119 H         -2.151232   6.633113   -0.485534 H        1 UNL1     0.0309
     120 H         -3.668861   6.865583   -1.325127 H        1 UNL1     0.0309
     121 H         3.114247   5.432942   -0.562354 H        1 UNL1     0.0524
     122 H         1.540377   6.193609   -0.295563 H        1 UNL1     0.0524
     123 H         2.551527   5.747319   1.101629 H        1 UNL1     0.0524
@<TRIPOS>BOND
     1     1     2    1
     2     1    42    1
     3     2     3    2
     4     3     4    1
     5     4     5    2
     6     5     7    1
     7     6    75    1
     8     6    76    1
     9     6    77    1
    10     7     9   am
    11     9    10    1
    12    10    11    2
    13    10    43    1
    14    11    14    1
    15    11    15    1
    16    12    13   ar
    17    12    27   ar
    18    12    43    1
    19    13    14    1
    20    13    30   ar
    21    14    17    2
    22    15    16    1
    23    16    17    1
    24    16    18    1
    25    16    22    1
    26    18    19    1
    27    19    20    1
    28    20    21    1
    29    21    22    1
    30    23    24    1
    31    23    88    1
    32    23    89    1
    33    24    25    1
    34    24    26    1
    35    24    90    1
    36    25    91    1
    37    25    92    1
    38    25    93    1
    39    26    94    1
    40    26    95    1
    41    26    96    1
    42    27    28   ar
    43    28    29   ar
    44    29    30   ar
    45    29    31    1
    46    30    33    1
    47    31    32    1
    48    32    33    1
    49    32    35    1
    50    34    97    1
    51    34    98    1
    52    34    99    1
    53    35    61    1
    54    36    37    1
    55    36    60    1
    56    37    38    1
    57    38    39    1
    58    39    40    1
    59    40    41    1
    60    41    42    1
    61    45   100    1
    62    47   101    1
    63    47   102    1
    64    47   103    1
    65    48   104    1
    66    49   105    1
    67    49   106    1
    68    49   107    1
    69    50   108    1
    70    51    59    1
    71    52   109    1
    72    52   110    1
    73    52   111    1
    74    53    54    1
    75    54    55    2
    76    54    56    1
    77    56   112    1
    78    56   113    1
    79    56   114    1
    80    57   115    1
    81    57   116    1
    82    57   117    1
    83    58   118    1
    84    58   119    1
    85    58   120    1
    86    59   121    1
    87    59   122    1
    88    59   123    1
    89    60    61    2
    90     1    47    1
    91     1    62    1
    92     2    63    1
    93     3    64    1
    94     4    65    1
    95     5     6    1
    96     7     8    2
    97     9    78    1
    98    15    79    1
    99    18    80    1
   100    18    81    1
   101    19    82    1
   102    19    83    1
   103    20    23    1
   104    21    84    1
   105    21    85    1
   106    22    86    1
   107    22    87    1
   108    27    45    1
   109    28    34    1
   110    32    58    1
   111    33    46    2
   112    36    51    1
   113    36    66    1
   114    37    52    1
   115    37    67    1
   116    38    53    1
   117    38    68    1
   118    42    48    1
   119    42    72    1
   120    43    44    2
   121    60    73    1
   122    61    74    1
   123    39    69    1
   124    39    57    1
   125    40    70    1
   126    40    50    1
   127    41    71    1
   128    41    49    1
