@<TRIPOS>MOLECULE
*****
 123 128 0 0 0
SMALL
GASTEIGER

@<TRIPOS>ATOM
     1 C         4.043866   2.029814   -2.920492 C.3        1 UNL1     0.0009
     2 C         4.596211   3.554792   -3.818486 C.2        1 UNL1     -0.0787
     3 C         4.897045   4.244479   -5.055368 C.2        1 UNL1     -0.0649
     4 C         5.300983   5.875083   -5.265897 C.2        1 UNL1     -0.0542
     5 C         5.366705   6.94464   -6.192616 C.2        1 UNL1     0.0115
     6 C         5.262344   7.310486   -7.698799 C.3        1 UNL1     -0.0348
     7 C         5.463715   8.448045   -5.638223 C.2        1 UNL1     0.2441
     8 O         6.509296   9.082682   -5.6154 O.2        1 UNL1     -0.2702
     9 N         4.225331   9.07797   -5.424325 N.am        1 UNL1     -0.2772
     10 C         3.764789   8.813203   -4.155026 C.2        1 UNL1     0.1049
     11 C         3.134314   7.664154   -3.99251 C.2        1 UNL1     0.0801
     12 C         4.459732   8.815898   -1.752032 C.ar        1 UNL1     0.0753
     13 C         3.944931   7.482176   -1.682938 C.ar        1 UNL1     0.0305
     14 C         3.14711   6.912855   -2.766639 C.2        1 UNL1     0.0924
     15 N         2.678524   6.791921   -4.90793 N.pl3        1 UNL1     -0.3170
     16 C         1.915028   5.78763   -4.216029 C.3        1 UNL1     0.1275
     17 N         2.513746   5.745125   -2.831308 N.2        1 UNL1     -0.2557
     18 C         0.499344   6.331293   -4.048786 C.3        1 UNL1     0.0016
     19 C         -0.045055   6.700173   -5.419606 C.3        1 UNL1     0.0026
     20 N         -0.036174   5.511956   -6.261681 N.3        1 UNL1     -0.3018
     21 C         1.273986   4.880414   -6.431991 C.3        1 UNL1     0.0026
     22 C         1.800009   4.51397   -5.043138 C.3        1 UNL1     0.0016
     23 C         -0.804861   5.677817   -7.47916 C.3        1 UNL1     0.0012
     24 C         -2.060535   4.792334   -7.448189 C.3        1 UNL1     -0.0339
     25 C         -3.008599   5.200599   -6.308649 C.3        1 UNL1     -0.0615
     26 C         -2.758271   4.830768   -8.796695 C.3        1 UNL1     -0.0615
     27 C         5.115227   9.393628   -0.667286 C.ar        1 UNL1     0.1347
     28 C         5.280557   8.752783   0.547635 C.ar        1 UNL1     0.0342
     29 C         4.809017   7.423126   0.576378 C.ar        1 UNL1     0.1435
     30 C         4.182583   6.818699   -0.51425 C.ar        1 UNL1     0.0774
     31 O         4.797882   6.703888   1.719872 O.3        1 UNL1     -0.4436
     32 C         3.854134   5.649925   1.476201 C.3        1 UNL1     0.3143
     33 C         3.798625   5.508624   -0.031501 C.2        1 UNL1     0.2504
     34 C         5.744643   9.393029   1.826231 C.3        1 UNL1     -0.0327
     35 O         4.425675   4.439647   1.987885 O.2        1 UNL1     -0.4528
     36 C         1.496199   2.279555   3.065039 C.3        1 UNL1     0.0854
     37 C         0.268216   1.770807   2.216066 C.3        1 UNL1     0.0236
     38 C         0.053048   0.181661   2.224016 C.3        1 UNL1     0.1131
     39 C         1.266725   -0.776646   1.890992 C.3        1 UNL1     0.0200
     40 C         2.293546   -0.430144   0.622917 C.3        1 UNL1     0.0661
     41 C         1.822244   -0.042264   -0.959813 C.3        1 UNL1     0.0091
     42 C         2.608317   1.057765   -2.199744 C.3        1 UNL1     0.0661
     43 C         4.193802   9.595736   -2.98629 C.2        1 UNL1     0.2131
     44 O         4.217644   10.812322   -3.031998 O.2        1 UNL1     -0.2851
     45 O         5.626306   10.679293   -0.832521 O.3        1 UNL1     -0.5056
     46 O         3.521602   4.529003   -0.68683 O.2        1 UNL1     -0.2836
     47 C         5.17995   0.971963   -2.904835 C.3        1 UNL1     -0.0566
     48 O         2.502636   0.075739   -3.305896 O.3        1 UNL1     -0.3909
     49 C         0.343024   0.272976   -0.96511 C.3        1 UNL1     -0.0577
     50 O         3.334488   0.429492   1.041473 O.3        1 UNL1     -0.3910
     51 O         2.347816   1.279508   3.576981 O.3        1 UNL1     -0.3753
     52 C         0.054053   2.632177   0.928772 C.3        1 UNL1     -0.0564
     53 O         -1.293475   -0.244611   1.716577 O.3        1 UNL1     -0.4608
     54 C         -1.735519   -0.111661   0.426286 C.2        1 UNL1     0.3042
     55 O         -1.332248   -0.715041   -0.567265 O.2        1 UNL1     -0.2512
     56 C         -2.878398   0.852014   0.278402 C.3        1 UNL1     0.0332
     57 C         1.921954   -1.225374   3.279334 C.3        1 UNL1     -0.0567
     58 C         2.485163   6.163508   1.979866 C.3        1 UNL1     0.0210
     59 C         2.402997   1.210565   5.001083 C.3        1 UNL1     0.0372
     60 C         2.365688   3.274189   2.37958 C.2        1 UNL1     -0.0208
     61 C         3.694851   3.353161   2.303214 C.2        1 UNL1     0.0882
     62 H         4.117757   2.582393   -1.976083 H        1 UNL1     0.0365
     63 H         4.836624   4.209849   -2.978502 H        1 UNL1     0.0576
     64 H         4.722017   3.778628   -6.027713 H        1 UNL1     0.0615
     65 H         5.530715   6.219416   -4.253898 H        1 UNL1     0.0622
     66 H         1.043576   2.809892   3.914698 H        1 UNL1     0.0645
     67 H         -0.612498   2.114386   2.786028 H        1 UNL1     0.0362
     68 H         -0.153778   0.029395   3.294325 H        1 UNL1     0.0741
     69 H         0.878139   -1.749895   1.622302 H        1 UNL1     0.0359
     70 H         2.781882   -1.415561   0.49825 H        1 UNL1     0.0600
     71 H         1.830759   -1.051254   -1.416784 H        1 UNL1     0.0348
     72 H         3.392641   0.816898   -1.467532 H        1 UNL1     0.0602
     73 H         1.764918   4.068706   2.012066 H        1 UNL1     0.0628
     74 H         4.37809   2.557916   2.603227 H        1 UNL1     0.1022
     75 H         5.551828   6.439408   -8.334767 H        1 UNL1     0.0279
     76 H         4.269692   7.553009   -8.071482 H        1 UNL1     0.0279
     77 H         6.005707   8.060321   -8.006795 H        1 UNL1     0.0279
     78 H         3.538466   8.714112   -6.081517 H        1 UNL1     0.1553
     79 H         2.522226   7.026157   -5.871069 H        1 UNL1     0.1484
     80 H         -0.121469   5.568666   -3.563236 H        1 UNL1     0.0317
     81 H         0.491671   7.20706   -3.391045 H        1 UNL1     0.0317
     82 H         0.530977   7.516149   -5.880347 H        1 UNL1     0.0428
     83 H         -1.054472   7.087194   -5.276979 H        1 UNL1     0.0428
     84 H         1.240076   3.946705   -7.001948 H        1 UNL1     0.0428
     85 H         1.963438   5.517013   -7.003579 H        1 UNL1     0.0428
     86 H         2.691103   3.93872   -5.21351 H        1 UNL1     0.0317
     87 H         1.122887   3.79686   -4.563184 H        1 UNL1     0.0317
     88 H         -1.11911   6.727722   -7.544299 H        1 UNL1     0.0429
     89 H         -0.194866   5.468983   -8.367455 H        1 UNL1     0.0429
     90 H         -1.76049   3.748795   -7.295832 H        1 UNL1     0.0308
     91 H         -2.820566   4.613011   -5.405053 H        1 UNL1     0.0233
     92 H         -2.897815   6.262216   -6.075613 H        1 UNL1     0.0233
     93 H         -4.063503   5.053376   -6.570064 H        1 UNL1     0.0233
     94 H         -2.586685   5.796983   -9.283338 H        1 UNL1     0.0233
     95 H         -2.35641   4.049333   -9.447717 H        1 UNL1     0.0233
     96 H         -3.836821   4.68313   -8.692286 H        1 UNL1     0.0233
     97 H         5.684377   8.710697   2.668859 H        1 UNL1     0.0280
     98 H         6.793727   9.712041   1.772287 H        1 UNL1     0.0280
     99 H         5.117312   10.27194   2.047742 H        1 UNL1     0.0280
     100 H         5.53795   11.235621   -0.078655 H        1 UNL1     0.2922
     101 H         5.913821   1.231841   -2.142239 H        1 UNL1     0.0236
     102 H         5.639973   0.822513   -3.881066 H        1 UNL1     0.0236
     103 H         4.812826   -0.025714   -2.611485 H        1 UNL1     0.0236
     104 H         2.297209   -0.793687   -2.90983 H        1 UNL1     0.2098
     105 H         0.10826   1.323536   -1.116835 H        1 UNL1     0.0234
     106 H         -0.252446   -0.347684   -1.63453 H        1 UNL1     0.0234
     107 H         -0.0   0.0   0.0 H        1 UNL1     0.0234
     108 H         3.531843   1.029974   0.297001 H        1 UNL1     0.2098
     109 H         -0.994889   2.6367   0.601036 H        1 UNL1     0.0234
     110 H         0.408672   3.66288   1.036665 H        1 UNL1     0.0234
     111 H         0.629187   2.240331   0.079287 H        1 UNL1     0.0234
     112 H         -3.823464   0.344472   0.494269 H        1 UNL1     0.0342
     113 H         -2.755431   1.732721   0.906954 H        1 UNL1     0.0342
     114 H         -2.908852   1.190394   -0.76646 H        1 UNL1     0.0342
     115 H         1.158927   -1.451293   4.036921 H        1 UNL1     0.0234
     116 H         2.574949   -2.096865   3.200915 H        1 UNL1     0.0234
     117 H         2.487137   -0.42025   3.77962 H        1 UNL1     0.0234
     118 H         2.389746   7.258626   1.876822 H        1 UNL1     0.0309
     119 H         1.6366   5.681813   1.483768 H        1 UNL1     0.0309
     120 H         2.342976   5.997497   3.053333 H        1 UNL1     0.0309
     121 H         3.452674   1.239321   5.292128 H        1 UNL1     0.0524
     122 H         1.901797   2.067514   5.481161 H        1 UNL1     0.0524
     123 H         1.94205   0.291231   5.351008 H        1 UNL1     0.0524
@<TRIPOS>BOND
     1     1     2    1
     2     1    42    1
     3     2     3    2
     4     3     4    1
     5     4     5    2
     6     5     7    1
     7     6    75    1
     8     6    76    1
     9     6    77    1
    10     7     9   am
    11     9    10    1
    12    10    11    2
    13    10    43    1
    14    11    14    1
    15    11    15    1
    16    12    13   ar
    17    12    27   ar
    18    12    43    1
    19    13    14    1
    20    13    30   ar
    21    14    17    2
    22    15    16    1
    23    16    17    1
    24    16    18    1
    25    16    22    1
    26    18    19    1
    27    19    20    1
    28    20    21    1
    29    21    22    1
    30    23    24    1
    31    23    88    1
    32    23    89    1
    33    24    25    1
    34    24    26    1
    35    24    90    1
    36    25    91    1
    37    25    92    1
    38    25    93    1
    39    26    94    1
    40    26    95    1
    41    26    96    1
    42    27    28   ar
    43    28    29   ar
    44    29    30   ar
    45    29    31    1
    46    30    33    1
    47    31    32    1
    48    32    33    1
    49    32    35    1
    50    34    97    1
    51    34    98    1
    52    34    99    1
    53    35    61    1
    54    36    37    1
    55    36    60    1
    56    37    38    1
    57    38    39    1
    58    39    40    1
    59    40    41    1
    60    41    42    1
    61    45   100    1
    62    47   101    1
    63    47   102    1
    64    47   103    1
    65    48   104    1
    66    49   105    1
    67    49   106    1
    68    49   107    1
    69    50   108    1
    70    51    59    1
    71    52   109    1
    72    52   110    1
    73    52   111    1
    74    53    54    1
    75    54    55    2
    76    54    56    1
    77    56   112    1
    78    56   113    1
    79    56   114    1
    80    57   115    1
    81    57   116    1
    82    57   117    1
    83    58   118    1
    84    58   119    1
    85    58   120    1
    86    59   121    1
    87    59   122    1
    88    59   123    1
    89    60    61    2
    90     1    47    1
    91     1    62    1
    92     2    63    1
    93     3    64    1
    94     4    65    1
    95     5     6    1
    96     7     8    2
    97     9    78    1
    98    15    79    1
    99    18    80    1
   100    18    81    1
   101    19    82    1
   102    19    83    1
   103    20    23    1
   104    21    84    1
   105    21    85    1
   106    22    86    1
   107    22    87    1
   108    27    45    1
   109    28    34    1
   110    32    58    1
   111    33    46    2
   112    36    51    1
   113    36    66    1
   114    37    52    1
   115    37    67    1
   116    38    53    1
   117    38    68    1
   118    42    48    1
   119    42    72    1
   120    43    44    2
   121    60    73    1
   122    61    74    1
   123    39    69    1
   124    39    57    1
   125    40    70    1
   126    40    50    1
   127    41    71    1
   128    41    49    1
