@<TRIPOS>MOLECULE
*****
 123 128 0 0 0
SMALL
GASTEIGER

@<TRIPOS>ATOM
     1 C         5.1668   1.750341   0.489646 C.3        1 UNL1     0.0009
     2 C         6.602859   2.557194   -0.361096 C.2        1 UNL1     -0.0787
     3 C         7.884486   2.459641   -1.0274 C.2        1 UNL1     -0.0649
     4 C         8.761204   3.695294   -1.782969 C.2        1 UNL1     -0.0542
     5 C         9.780733   3.988573   -2.721919 C.2        1 UNL1     0.0115
     6 C         10.908769   3.363776   -3.588225 C.3        1 UNL1     -0.0348
     7 C         9.875324   5.472053   -3.327996 C.2        1 UNL1     0.2441
     8 O         10.699097   6.293853   -2.950413 O.2        1 UNL1     -0.2702
     9 N         9.124535   5.679143   -4.498287 N.am        1 UNL1     -0.2772
     10 C         7.841826   6.065301   -4.183863 C.2        1 UNL1     0.1049
     11 C         6.996486   5.093517   -3.891875 C.2        1 UNL1     0.0801
     12 C         6.543506   7.671078   -2.772063 C.ar        1 UNL1     0.0753
     13 C         5.785011   6.542771   -2.324607 C.ar        1 UNL1     0.0305
     14 C         5.902098   5.237312   -2.970456 C.2        1 UNL1     0.0924
     15 N         7.119476   3.764629   -4.051437 N.pl3        1 UNL1     -0.3170
     16 C         5.849949   3.164941   -3.736909 C.3        1 UNL1     0.1275
     17 N         5.213652   4.119656   -2.756414 N.2        1 UNL1     -0.2557
     18 C         4.996542   3.224129   -5.000196 C.3        1 UNL1     0.0016
     19 C         5.751167   2.540643   -6.129345 C.3        1 UNL1     0.0026
     20 N         6.021928   1.162508   -5.744036 N.3        1 UNL1     -0.3018
     21 C         6.785866   1.001975   -4.505087 C.3        1 UNL1     0.0026
     22 C         6.007372   1.691884   -3.383541 C.3        1 UNL1     0.0016
     23 C         6.466231   0.343468   -6.854176 C.3        1 UNL1     0.0012
     24 C         5.31045   0.093921   -7.835833 C.3        1 UNL1     -0.0339
     25 C         5.34533   1.08645   -9.009599 C.3        1 UNL1     -0.0615
     26 C         5.339819   -1.345415   -8.319807 C.3        1 UNL1     -0.0615
     27 C         6.338658   8.938534   -2.231961 C.ar        1 UNL1     0.1347
     28 C         5.379921   9.207464   -1.271466 C.ar        1 UNL1     0.0342
     29 C         4.678931   8.072638   -0.81109 C.ar        1 UNL1     0.1435
     30 C         4.89858   6.790842   -1.317028 C.ar        1 UNL1     0.0774
     31 O         3.638268   8.185594   0.042882 O.3        1 UNL1     -0.4436
     32 C         2.916935   6.952581   -0.099354 C.3        1 UNL1     0.3143
     33 C         3.930331   5.959976   -0.63225 C.2        1 UNL1     0.2504
     34 C         4.932822   10.573283   -0.830171 C.3        1 UNL1     -0.0327
     35 O         2.55701   6.515352   1.216904 O.2        1 UNL1     -0.4528
     36 C         -0.68557   4.58222   0.820971 C.3        1 UNL1     0.0854
     37 C         -0.990849   3.321813   -0.076638 C.3        1 UNL1     0.0236
     38 C         -1.590648   2.060328   0.711169 C.3        1 UNL1     0.1131
     39 C         -0.864151   1.529231   2.012095 C.3        1 UNL1     0.0200
     40 C         0.797107   1.384221   2.052497 C.3        1 UNL1     0.0661
     41 C         1.756222   0.616067   0.883032 C.3        1 UNL1     0.0091
     42 C         3.463444   0.979359   0.318397 C.3        1 UNL1     0.0661
     43 C         7.493129   7.464033   -3.893494 C.2        1 UNL1     0.2131
     44 O         7.892404   8.362462   -4.611924 O.2        1 UNL1     -0.2851
     45 O         7.150385   9.974049   -2.690487 O.3        1 UNL1     -0.5056
     46 O         3.946773   4.756407   -0.501847 O.2        1 UNL1     -0.2836
     47 C         5.56393   1.320557   1.927545 C.3        1 UNL1     -0.0566
     48 O         3.912507   -0.431623   0.399559 O.3        1 UNL1     -0.3909
     49 C         0.92157   0.383579   -0.356645 C.3        1 UNL1     -0.0577
     50 O         1.397077   2.602161   2.44541 O.3        1 UNL1     -0.3910
     51 O         -0.808989   4.392084   2.21239 O.3        1 UNL1     -0.3753
     52 C         0.053155   3.162033   -1.229667 C.3        1 UNL1     -0.0564
     53 O         -2.193303   1.021419   -0.188719 O.3        1 UNL1     -0.4608
     54 C         -2.427136   -0.285512   0.150668 C.2        1 UNL1     0.3042
     55 O         -1.856883   -1.284222   -0.286629 O.2        1 UNL1     -0.2512
     56 C         -3.468135   -0.451935   1.220873 C.3        1 UNL1     0.0332
     57 C         -1.584845   2.197609   3.273858 C.3        1 UNL1     -0.0567
     58 C         1.841185   7.197645   -1.182975 C.3        1 UNL1     0.0210
     59 C         -1.122247   5.570765   2.952962 C.3        1 UNL1     0.0372
     60 C         0.643118   5.211808   0.58996 C.2        1 UNL1     -0.0208
     61 C         1.556293   5.647079   1.459095 C.2        1 UNL1     0.0882
     62 H         4.690597   2.734332   0.577417 H        1 UNL1     0.0365
     63 H         6.336314   3.610875   -0.25536 H        1 UNL1     0.0576
     64 H         8.342358   1.493007   -1.248938 H        1 UNL1     0.0615
     65 H         8.273976   4.610428   -1.435664 H        1 UNL1     0.0622
     66 H         -1.430601   5.328597   0.511299 H        1 UNL1     0.0645
     67 H         -1.856768   3.631078   -0.687457 H        1 UNL1     0.0362
     68 H         -2.537705   2.496791   1.063455 H        1 UNL1     0.0741
     69 H         -1.195257   0.517968   2.207343 H        1 UNL1     0.0359
     70 H         0.909488   0.723666   2.933461 H        1 UNL1     0.0600
     71 H         1.800326   -0.405211   1.309652 H        1 UNL1     0.0348
     72 H         3.357838   1.46724   1.298262 H        1 UNL1     0.0602
     73 H         0.76049   5.409401   -0.446586 H        1 UNL1     0.0628
     74 H         1.539291   5.436094   2.528877 H        1 UNL1     0.1022
     75 H         10.935057   2.255076   -3.457354 H        1 UNL1     0.0279
     76 H         10.808062   3.470116   -4.66601 H        1 UNL1     0.0279
     77 H         11.914696   3.646515   -3.244904 H        1 UNL1     0.0279
     78 H         9.062584   4.809328   -5.023322 H        1 UNL1     0.1553
     79 H         7.784611   3.337036   -4.669249 H        1 UNL1     0.1484
     80 H         4.035507   2.732826   -4.805778 H        1 UNL1     0.0317
     81 H         4.769476   4.260888   -5.270795 H        1 UNL1     0.0317
     82 H         6.681547   3.07232   -6.37759 H        1 UNL1     0.0428
     83 H         5.1256   2.595844   -7.020787 H        1 UNL1     0.0428
     84 H         6.906663   -0.041028   -4.196276 H        1 UNL1     0.0428
     85 H         7.815793   1.370373   -4.609256 H        1 UNL1     0.0428
     86 H         6.524281   1.441424   -2.475762 H        1 UNL1     0.0317
     87 H         5.028138   1.213893   -3.258154 H        1 UNL1     0.0317
     88 H         7.261884   0.885676   -7.381662 H        1 UNL1     0.0429
     89 H         6.89929   -0.602267   -6.503718 H        1 UNL1     0.0429
     90 H         4.357614   0.212532   -7.306448 H        1 UNL1     0.0308
     91 H         6.298277   1.036138   -9.54482 H        1 UNL1     0.0233
     92 H         4.530192   0.886414   -9.708988 H        1 UNL1     0.0233
     93 H         5.219008   2.125424   -8.68186 H        1 UNL1     0.0233
     94 H         4.645001   -1.476865   -9.156338 H        1 UNL1     0.0233
     95 H         6.343252   -1.600888   -8.671685 H        1 UNL1     0.0233
     96 H         5.057469   -2.039959   -7.523657 H        1 UNL1     0.0233
     97 H         4.133533   10.523166   -0.096785 H        1 UNL1     0.0280
     98 H         5.743179   11.139969   -0.353261 H        1 UNL1     0.0280
     99 H         4.567379   11.141327   -1.701305 H        1 UNL1     0.0280
     100 H         6.682979   10.725124   -3.011486 H        1 UNL1     0.2922
     101 H         4.701484   0.886491   2.432945 H        1 UNL1     0.0236
     102 H         6.014707   2.125883   2.506539 H        1 UNL1     0.0236
     103 H         6.320441   0.518135   1.925877 H        1 UNL1     0.0236
     104 H         4.327093   -0.559303   1.275222 H        1 UNL1     0.2098
     105 H         0.708373   1.282505   -0.929612 H        1 UNL1     0.0234
     106 H         1.290923   -0.404135   -1.013161 H        1 UNL1     0.0234
     107 H         0.0   -0.0   0.0 H        1 UNL1     0.0234
     108 H         1.213025   3.25589   1.743603 H        1 UNL1     0.2098
     109 H         1.079641   3.061177   -0.850372 H        1 UNL1     0.0234
     110 H         -0.17265   2.327439   -1.902131 H        1 UNL1     0.0234
     111 H         0.064976   4.03981   -1.889451 H        1 UNL1     0.0234
     112 H         -3.591018   -1.512906   1.458749 H        1 UNL1     0.0342
     113 H         -3.232538   0.124086   2.114482 H        1 UNL1     0.0342
     114 H         -4.425415   -0.081608   0.828907 H        1 UNL1     0.0342
     115 H         -2.65437   1.948971   3.31237 H        1 UNL1     0.0234
     116 H         -1.147865   1.917719   4.234461 H        1 UNL1     0.0234
     117 H         -1.623827   3.299467   3.22556 H        1 UNL1     0.0234
     118 H         0.939513   7.682728   -0.769829 H        1 UNL1     0.0309
     119 H         2.209554   7.787288   -2.028449 H        1 UNL1     0.0309
     120 H         1.453835   6.265716   -1.609091 H        1 UNL1     0.0309
     121 H         -0.290017   6.264395   2.836229 H        1 UNL1     0.0524
     122 H         -2.028568   6.073229   2.575936 H        1 UNL1     0.0524
     123 H         -1.264044   5.328672   4.002428 H        1 UNL1     0.0524
@<TRIPOS>BOND
     1     1     2    1
     2     1    42    1
     3     2     3    2
     4     3     4    1
     5     4     5    2
     6     5     7    1
     7     6    75    1
     8     6    76    1
     9     6    77    1
    10     7     9   am
    11     9    10    1
    12    10    11    2
    13    10    43    1
    14    11    14    1
    15    11    15    1
    16    12    13   ar
    17    12    27   ar
    18    12    43    1
    19    13    14    1
    20    13    30   ar
    21    14    17    2
    22    15    16    1
    23    16    17    1
    24    16    18    1
    25    16    22    1
    26    18    19    1
    27    19    20    1
    28    20    21    1
    29    21    22    1
    30    23    24    1
    31    23    88    1
    32    23    89    1
    33    24    25    1
    34    24    26    1
    35    24    90    1
    36    25    91    1
    37    25    92    1
    38    25    93    1
    39    26    94    1
    40    26    95    1
    41    26    96    1
    42    27    28   ar
    43    28    29   ar
    44    29    30   ar
    45    29    31    1
    46    30    33    1
    47    31    32    1
    48    32    33    1
    49    32    35    1
    50    34    97    1
    51    34    98    1
    52    34    99    1
    53    35    61    1
    54    36    37    1
    55    36    60    1
    56    37    38    1
    57    38    39    1
    58    39    40    1
    59    40    41    1
    60    41    42    1
    61    45   100    1
    62    47   101    1
    63    47   102    1
    64    47   103    1
    65    48   104    1
    66    49   105    1
    67    49   106    1
    68    49   107    1
    69    50   108    1
    70    51    59    1
    71    52   109    1
    72    52   110    1
    73    52   111    1
    74    53    54    1
    75    54    55    2
    76    54    56    1
    77    56   112    1
    78    56   113    1
    79    56   114    1
    80    57   115    1
    81    57   116    1
    82    57   117    1
    83    58   118    1
    84    58   119    1
    85    58   120    1
    86    59   121    1
    87    59   122    1
    88    59   123    1
    89    60    61    2
    90     1    47    1
    91     1    62    1
    92     2    63    1
    93     3    64    1
    94     4    65    1
    95     5     6    1
    96     7     8    2
    97     9    78    1
    98    15    79    1
    99    18    80    1
   100    18    81    1
   101    19    82    1
   102    19    83    1
   103    20    23    1
   104    21    84    1
   105    21    85    1
   106    22    86    1
   107    22    87    1
   108    27    45    1
   109    28    34    1
   110    32    58    1
   111    33    46    2
   112    36    51    1
   113    36    66    1
   114    37    52    1
   115    37    67    1
   116    38    53    1
   117    38    68    1
   118    42    48    1
   119    42    72    1
   120    43    44    2
   121    60    73    1
   122    61    74    1
   123    39    69    1
   124    39    57    1
   125    40    70    1
   126    40    50    1
   127    41    71    1
   128    41    49    1
