@<TRIPOS>MOLECULE
*****
 123 128 0 0 0
SMALL
GASTEIGER

@<TRIPOS>ATOM
     1 C         3.082199   -3.475938   2.903398 C.3        1 UNL1     0.0009
     2 C         3.269738   -4.388836   4.506047 C.2        1 UNL1     -0.0787
     3 C         3.88493   -4.52493   5.809528 C.2        1 UNL1     -0.0649
     4 C         3.515161   -5.646445   7.022719 C.2        1 UNL1     -0.0542
     5 C         3.614598   -5.935502   8.406061 C.2        1 UNL1     0.0115
     6 C         4.27748   -5.489815   9.738455 C.3        1 UNL1     -0.0348
     7 C         2.646199   -7.048597   9.038684 C.2        1 UNL1     0.2441
     8 O         3.018882   -8.184165   9.299678 O.2        1 UNL1     -0.2702
     9 N         1.417418   -6.558656   9.514295 N.am        1 UNL1     -0.2772
     10 C         0.48086   -6.551201   8.506264 C.2        1 UNL1     0.1049
     11 C         0.507447   -5.509567   7.694776 C.2        1 UNL1     0.0801
     12 C         -0.505121   -7.978655   6.704168 C.ar        1 UNL1     0.0753
     13 C         -0.261228   -6.885405   5.813142 C.ar        1 UNL1     0.0305
     14 C         0.132038   -5.568034   6.308044 C.2        1 UNL1     0.0924
     15 N         1.164073   -4.342351   7.808686 N.pl3        1 UNL1     -0.3170
     16 C         0.719757   -3.482512   6.744019 C.3        1 UNL1     0.1275
     17 N         0.301379   -4.427881   5.644492 N.2        1 UNL1     -0.2557
     18 C         -0.55656   -2.795611   7.22034 C.3        1 UNL1     0.0016
     19 C         -0.263027   -2.076252   8.527226 C.3        1 UNL1     0.0026
     20 N         0.799824   -1.107036   8.299198 N.3        1 UNL1     -0.3018
     21 C         2.050079   -1.665868   7.780606 C.3        1 UNL1     0.0026
     22 C         1.732638   -2.379764   6.46551 C.3        1 UNL1     0.0016
     23 C         0.949865   -0.167045   9.392151 C.3        1 UNL1     0.0012
     24 C         -0.245723   0.797279   9.441174 C.3        1 UNL1     -0.0339
     25 C         -1.109365   0.559205   10.690775 C.3        1 UNL1     -0.0615
     26 C         0.240514   2.234035   9.36315 C.3        1 UNL1     -0.0615
     27 C         -0.995735   -9.195428   6.236323 C.ar        1 UNL1     0.1347
     28 C         -1.31655   -9.424027   4.910099 C.ar        1 UNL1     0.0342
     29 C         -1.022196   -8.349852   4.043689 C.ar        1 UNL1     0.1435
     30 C         -0.496683   -7.137663   4.492747 C.ar        1 UNL1     0.0774
     31 O         -1.378844   -8.37708   2.740973 O.3        1 UNL1     -0.4436
     32 C         -1.357753   -7.00164   2.330373 C.3        1 UNL1     0.3143
     33 C         -0.425999   -6.311277   3.305795 C.2        1 UNL1     0.2504
     34 C         -2.077078   -10.606709   4.378158 C.3        1 UNL1     -0.0327
     35 O         -0.727784   -6.950603   1.044377 O.2        1 UNL1     -0.4528
     36 C         -2.27692   -3.990031   -0.756534 C.3        1 UNL1     0.0854
     37 C         -2.332807   -2.475762   -0.319054 C.3        1 UNL1     0.0236
     38 C         -1.73803   -1.440554   -1.38972 C.3        1 UNL1     0.1131
     39 C         -0.301196   -1.685501   -2.004359 C.3        1 UNL1     0.0200
     40 C         0.965834   -2.158925   -1.028172 C.3        1 UNL1     0.0661
     41 C         1.424988   -1.424065   0.430173 C.3        1 UNL1     0.0091
     42 C         2.16738   -2.146018   1.944452 C.3        1 UNL1     0.0661
     43 C         -0.303043   -7.744899   8.155644 C.2        1 UNL1     0.2131
     44 O         -0.826539   -8.417836   9.025038 O.2        1 UNL1     -0.2851
     45 O         -1.162153   -10.222934   7.162592 O.3        1 UNL1     -0.5056
     46 O         0.241562   -5.315895   3.13424 O.2        1 UNL1     -0.2836
     47 C         4.306139   -3.740326   1.985764 C.3        1 UNL1     -0.0566
     48 O         3.217549   -1.105734   2.063071 O.3        1 UNL1     -0.3909
     49 C         0.316828   -0.498377   0.880261 C.3        1 UNL1     -0.0577
     50 O         0.993946   -3.565318   -0.890364 O.3        1 UNL1     -0.3910
     51 O         -1.56235   -4.263198   -1.94068 O.3        1 UNL1     -0.3753
     52 C         -2.103197   -2.305416   1.21822 C.3        1 UNL1     -0.0564
     53 O         -2.113976   -0.01325   -1.118068 O.3        1 UNL1     -0.4608
     54 C         -1.302173   1.073581   -1.312248 C.2        1 UNL1     0.3042
     55 O         -0.690107   1.711066   -0.456196 O.2        1 UNL1     -0.2512
     56 C         -1.134836   1.448711   -2.757235 C.3        1 UNL1     0.0332
     57 C         -0.495771   -2.449618   -3.395919 C.3        1 UNL1     -0.0567
     58 C         -2.790912   -6.460204   2.541161 C.3        1 UNL1     0.0210
     59 C         -1.984072   -5.434023   -2.638666 C.3        1 UNL1     0.0372
     60 C         -1.762847   -4.925643   0.280538 C.2        1 UNL1     -0.0208
     61 C         -0.887199   -5.926949   0.183733 C.2        1 UNL1     0.0882
     62 H         2.308017   -4.193958   2.607088 H        1 UNL1     0.0365
     63 H         2.618916   -5.247558   4.328569 H        1 UNL1     0.0576
     64 H         4.569503   -3.769204   6.201122 H        1 UNL1     0.0615
     65 H         2.899106   -6.390616   6.510694 H        1 UNL1     0.0622
     66 H         -3.327381   -4.269063   -0.919993 H        1 UNL1     0.0645
     67 H         -3.408107   -2.227864   -0.347983 H        1 UNL1     0.0362
     68 H         -2.44245   -1.608244   -2.218692 H        1 UNL1     0.0741
     69 H         0.059297   -0.757274   -2.427262 H        1 UNL1     0.0359
     70 H         1.817635   -1.929417   -1.696619 H        1 UNL1     0.0600
     71 H         2.173724   -0.699515   0.054168 H        1 UNL1     0.0348
     72 H         2.352824   -2.872355   1.139865 H        1 UNL1     0.0602
     73 H         -2.304581   -4.779749   1.181919 H        1 UNL1     0.0628
     74 H         -0.25096   -6.108087   -0.683231 H        1 UNL1     0.1022
     75 H         5.371066   -5.316396   9.59344 H        1 UNL1     0.0279
     76 H         3.942933   -4.541665   10.153375 H        1 UNL1     0.0279
     77 H         4.282968   -6.285539   10.497728 H        1 UNL1     0.0279
     78 H         1.53217   -5.598769   9.832925 H        1 UNL1     0.1553
     79 H         1.529419   -3.991036   8.674731 H        1 UNL1     0.1484
     80 H         -0.89687   -2.097121   6.446346 H        1 UNL1     0.0317
     81 H         -1.362859   -3.523179   7.362391 H        1 UNL1     0.0317
     82 H         0.0084   -2.780394   9.327492 H        1 UNL1     0.0428
     83 H         -1.186771   -1.594986   8.849917 H        1 UNL1     0.0428
     84 H         2.80371   -0.908654   7.542955 H        1 UNL1     0.0428
     85 H         2.545303   -2.313049   8.517645 H        1 UNL1     0.0428
     86 H         2.68346   -2.658641   6.050597 H        1 UNL1     0.0317
     87 H         1.337768   -1.662522   5.735622 H        1 UNL1     0.0317
     88 H         0.978566   -0.736134   10.330558 H        1 UNL1     0.0429
     89 H         1.89801   0.381127   9.319329 H        1 UNL1     0.0429
     90 H         -0.868279   0.643049   8.551876 H        1 UNL1     0.0308
     91 H         -0.491666   0.462733   11.588685 H        1 UNL1     0.0233
     92 H         -1.820177   1.377005   10.830623 H        1 UNL1     0.0233
     93 H         -1.707882   -0.356813   10.616458 H        1 UNL1     0.0233
     94 H         -0.514809   2.911354   9.776142 H        1 UNL1     0.0233
     95 H         1.155581   2.351217   9.950417 H        1 UNL1     0.0233
     96 H         0.443392   2.531126   8.330413 H        1 UNL1     0.0233
     97 H         -2.308406   -10.501048   3.322434 H        1 UNL1     0.0280
     98 H         -1.506676   -11.540343   4.468856 H        1 UNL1     0.0280
     99 H         -3.024902   -10.714736   4.930477 H        1 UNL1     0.0280
     100 H         -2.000742   -10.648654   7.128632 H        1 UNL1     0.2922
     101 H         4.029175   -4.437434   1.195203 H        1 UNL1     0.0236
     102 H         5.188272   -4.071616   2.532638 H        1 UNL1     0.0236
     103 H         4.630175   -2.829593   1.454954 H        1 UNL1     0.0236
     104 H         3.5232   -0.890865   1.160087 H        1 UNL1     0.2098
     105 H         -0.546408   -1.004534   1.305043 H        1 UNL1     0.0234
     106 H         0.638246   0.312881   1.533313 H        1 UNL1     0.0234
     107 H         0.0   0.0   0.0 H        1 UNL1     0.0234
     108 H         1.535336   -3.768937   -0.103468 H        1 UNL1     0.2098
     109 H         -2.798495   -2.914437   1.812665 H        1 UNL1     0.0234
     110 H         -1.073905   -2.519   1.525925 H        1 UNL1     0.0234
     111 H         -2.267279   -1.268193   1.539456 H        1 UNL1     0.0234
     112 H         -0.316795   2.167755   -2.862733 H        1 UNL1     0.0342
     113 H         -0.973431   0.577606   -3.390455 H        1 UNL1     0.0342
     114 H         -2.05905   1.938278   -3.093858 H        1 UNL1     0.0342
     115 H         -1.205086   -1.927558   -4.052815 H        1 UNL1     0.0234
     116 H         0.429513   -2.590799   -3.95803 H        1 UNL1     0.0234
     117 H         -0.985155   -3.433404   -3.292913 H        1 UNL1     0.0234
     118 H         -3.333127   -6.339764   1.586959 H        1 UNL1     0.0309
     119 H         -3.388987   -7.079393   3.217262 H        1 UNL1     0.0309
     120 H         -2.800551   -5.450615   2.966301 H        1 UNL1     0.0309
     121 H         -1.135348   -5.79592   -3.218369 H        1 UNL1     0.0524
     122 H         -2.287285   -6.24312   -1.953494 H        1 UNL1     0.0524
     123 H         -2.815453   -5.199837   -3.297495 H        1 UNL1     0.0524
@<TRIPOS>BOND
     1     1     2    1
     2     1    42    1
     3     2     3    2
     4     3     4    1
     5     4     5    2
     6     5     7    1
     7     6    75    1
     8     6    76    1
     9     6    77    1
    10     7     9   am
    11     9    10    1
    12    10    11    2
    13    10    43    1
    14    11    14    1
    15    11    15    1
    16    12    13   ar
    17    12    27   ar
    18    12    43    1
    19    13    14    1
    20    13    30   ar
    21    14    17    2
    22    15    16    1
    23    16    17    1
    24    16    18    1
    25    16    22    1
    26    18    19    1
    27    19    20    1
    28    20    21    1
    29    21    22    1
    30    23    24    1
    31    23    88    1
    32    23    89    1
    33    24    25    1
    34    24    26    1
    35    24    90    1
    36    25    91    1
    37    25    92    1
    38    25    93    1
    39    26    94    1
    40    26    95    1
    41    26    96    1
    42    27    28   ar
    43    28    29   ar
    44    29    30   ar
    45    29    31    1
    46    30    33    1
    47    31    32    1
    48    32    33    1
    49    32    35    1
    50    34    97    1
    51    34    98    1
    52    34    99    1
    53    35    61    1
    54    36    37    1
    55    36    60    1
    56    37    38    1
    57    38    39    1
    58    39    40    1
    59    40    41    1
    60    41    42    1
    61    45   100    1
    62    47   101    1
    63    47   102    1
    64    47   103    1
    65    48   104    1
    66    49   105    1
    67    49   106    1
    68    49   107    1
    69    50   108    1
    70    51    59    1
    71    52   109    1
    72    52   110    1
    73    52   111    1
    74    53    54    1
    75    54    55    2
    76    54    56    1
    77    56   112    1
    78    56   113    1
    79    56   114    1
    80    57   115    1
    81    57   116    1
    82    57   117    1
    83    58   118    1
    84    58   119    1
    85    58   120    1
    86    59   121    1
    87    59   122    1
    88    59   123    1
    89    60    61    2
    90     1    47    1
    91     1    62    1
    92     2    63    1
    93     3    64    1
    94     4    65    1
    95     5     6    1
    96     7     8    2
    97     9    78    1
    98    15    79    1
    99    18    80    1
   100    18    81    1
   101    19    82    1
   102    19    83    1
   103    20    23    1
   104    21    84    1
   105    21    85    1
   106    22    86    1
   107    22    87    1
   108    27    45    1
   109    28    34    1
   110    32    58    1
   111    33    46    2
   112    36    51    1
   113    36    66    1
   114    37    52    1
   115    37    67    1
   116    38    53    1
   117    38    68    1
   118    42    48    1
   119    42    72    1
   120    43    44    2
   121    60    73    1
   122    61    74    1
   123    39    69    1
   124    39    57    1
   125    40    70    1
   126    40    50    1
   127    41    71    1
   128    41    49    1
