@<TRIPOS>MOLECULE
*****
 123 128 0 0 0
SMALL
GASTEIGER

@<TRIPOS>ATOM
     1 C         1.383636   -3.045133   4.337279 C.3        1 UNL1     0.0009
     2 C         2.718628   -4.03922   5.15375 C.2        1 UNL1     -0.0787
     3 C         3.311169   -5.319822   5.477788 C.2        1 UNL1     -0.0649
     4 C         4.784713   -5.617366   6.256565 C.2        1 UNL1     -0.0542
     5 C         5.803934   -6.574109   6.486581 C.2        1 UNL1     0.0115
     6 C         6.187616   -8.068905   6.308546 C.3        1 UNL1     -0.0348
     7 C         7.231318   -6.074421   7.024984 C.2        1 UNL1     0.2441
     8 O         7.577414   -6.184053   8.193197 O.2        1 UNL1     -0.2702
     9 N         8.156515   -5.742356   6.020049 N.am        1 UNL1     -0.2772
     10 C         8.015534   -4.423371   5.654363 C.2        1 UNL1     0.1049
     11 C         7.065569   -4.161514   4.775034 C.2        1 UNL1     0.0801
     12 C         7.835137   -2.112558   6.595072 C.ar        1 UNL1     0.0753
     13 C         6.677264   -1.951302   5.769278 C.ar        1 UNL1     0.0305
     14 C         6.333285   -2.924761   4.735302 C.2        1 UNL1     0.0924
     15 N         6.340914   -4.99733   4.011611 N.pl3        1 UNL1     -0.3170
     16 C         5.563745   -4.198737   3.101384 C.3        1 UNL1     0.1275
     17 N         5.366498   -2.887801   3.822677 N.2        1 UNL1     -0.2557
     18 C         6.450993   -3.891164   1.898932 C.3        1 UNL1     0.0016
     19 C         6.94984   -5.203053   1.31439 C.3        1 UNL1     0.0026
     20 N         5.800718   -6.008714   0.925217 N.3        1 UNL1     -0.3018
     21 C         4.855506   -6.30534   2.003621 C.3        1 UNL1     0.0026
     22 C         4.363673   -4.973575   2.573179 C.3        1 UNL1     0.0016
     23 C         6.160317   -7.138071   0.09102 C.3        1 UNL1     0.0012
     24 C         6.599465   -6.660448   -1.3021 C.3        1 UNL1     -0.0339
     25 C         8.131503   -6.614164   -1.423655 C.3        1 UNL1     -0.0615
     26 C         5.980031   -7.540715   -2.373646 C.3        1 UNL1     -0.0615
     27 C         8.223639   -1.1226   7.494608 C.ar        1 UNL1     0.1347
     28 C         7.559152   0.083491   7.628225 C.ar        1 UNL1     0.0342
     29 C         6.394235   0.19978   6.840438 C.ar        1 UNL1     0.1435
     30 C         5.972504   -0.798508   5.961356 C.ar        1 UNL1     0.0774
     31 O         5.699247   1.356462   6.776531 O.3        1 UNL1     -0.4436
     32 C         4.922212   1.246725   5.57443 C.3        1 UNL1     0.3143
     33 C         4.803121   -0.241325   5.314164 C.2        1 UNL1     0.2504
     34 C         8.056615   1.285463   8.381811 C.3        1 UNL1     -0.0327
     35 O         3.604895   1.724662   5.873605 O.2        1 UNL1     -0.4528
     36 C         2.263418   3.17583   2.632828 C.3        1 UNL1     0.0854
     37 C         2.087486   2.481365   1.227735 C.3        1 UNL1     0.0236
     38 C         0.606193   2.555718   0.617828 C.3        1 UNL1     0.1131
     39 C         -0.629886   2.116849   1.502006 C.3        1 UNL1     0.0200
     40 C         -0.554706   0.734471   2.432498 C.3        1 UNL1     0.0661
     41 C         -0.055717   -0.796527   1.898957 C.3        1 UNL1     0.0091
     42 C         0.809438   -2.144675   2.793053 C.3        1 UNL1     0.0661
     43 C         8.659763   -3.330511   6.397989 C.2        1 UNL1     0.2131
     44 O         9.829896   -3.411271   6.725105 O.2        1 UNL1     -0.2851
     45 O         9.336217   -1.377674   8.2937 O.3        1 UNL1     -0.5056
     46 O         3.928362   -0.835544   4.724628 O.2        1 UNL1     -0.2836
     47 C         0.070399   -3.126342   5.161168 C.3        1 UNL1     -0.0566
     48 O         -0.110473   -3.205628   2.316334 O.3        1 UNL1     -0.3909
     49 C         0.627331   -0.647235   0.557819 C.3        1 UNL1     -0.0577
     50 O         0.009224   1.012477   3.698365 O.3        1 UNL1     -0.3910
     51 O         1.077717   3.617501   3.254496 O.3        1 UNL1     -0.3753
     52 C         2.977811   1.20282   1.095091 C.3        1 UNL1     -0.0564
     53 O         0.539557   2.211428   -0.841402 O.3        1 UNL1     -0.4608
     54 C         -0.589492   1.829013   -1.517373 C.2        1 UNL1     0.3042
     55 O         -0.837084   0.720745   -1.990953 O.2        1 UNL1     -0.2512
     56 C         -1.628943   2.909461   -1.611644 C.3        1 UNL1     0.0332
     57 C         -1.234308   3.436079   2.174675 C.3        1 UNL1     -0.0567
     58 C         5.767694   1.884209   4.447353 C.3        1 UNL1     0.0210
     59 C         1.244805   4.711366   4.155278 C.3        1 UNL1     0.0372
     60 C         3.00413   2.372216   3.64313 C.2        1 UNL1     -0.0208
     61 C         2.740739   2.147723   4.931141 C.2        1 UNL1     0.0882
     62 H         1.896866   -2.129826   4.655902 H        1 UNL1     0.0365
     63 H         3.288572   -3.248774   5.646527 H        1 UNL1     0.0576
     64 H         2.907708   -6.25407   5.080916 H        1 UNL1     0.0615
     65 H         5.05662   -4.646482   6.67957 H        1 UNL1     0.0622
     66 H         2.889999   4.055627   2.42936 H        1 UNL1     0.0645
     67 H         2.643609   3.135475   0.533886 H        1 UNL1     0.0362
     68 H         0.509527   3.646007   0.501862 H        1 UNL1     0.0741
     69 H         -1.470808   1.918897   0.850796 H        1 UNL1     0.0359
     70 H         -1.631961   0.583288   2.636766 H        1 UNL1     0.0600
     71 H         -1.032326   -1.224351   1.598695 H        1 UNL1     0.0348
     72 H         0.374396   -1.497158   3.56815 H        1 UNL1     0.0602
     73 H         3.926669   2.051922   3.226499 H        1 UNL1     0.0628
     74 H         1.796555   2.391883   5.419137 H        1 UNL1     0.1022
     75 H         5.375051   -8.621728   5.778301 H        1 UNL1     0.0279
     76 H         7.056009   -8.276192   5.68726 H        1 UNL1     0.0279
     77 H         6.232691   -8.613017   7.263329 H        1 UNL1     0.0279
     78 H         7.981853   -6.309815   5.193272 H        1 UNL1     0.1553
     79 H         6.609449   -5.943324   3.811818 H        1 UNL1     0.1484
     80 H         5.871419   -3.319815   1.163799 H        1 UNL1     0.0317
     81 H         7.298153   -3.260377   2.188895 H        1 UNL1     0.0317
     82 H         7.592388   -5.746252   2.022895 H        1 UNL1     0.0428
     83 H         7.581815   -4.960501   0.459506 H        1 UNL1     0.0428
     84 H         3.962772   -6.842768   1.668942 H        1 UNL1     0.0428
     85 H         5.29588   -6.966347   2.762868 H        1 UNL1     0.0428
     86 H         3.580049   -5.225589   3.263403 H        1 UNL1     0.0317
     87 H         3.842514   -4.402804   1.794905 H        1 UNL1     0.0317
     88 H         7.003806   -7.657447   0.56438 H        1 UNL1     0.0429
     89 H         5.336619   -7.860111   0.020644 H        1 UNL1     0.0429
     90 H         6.204684   -5.652638   -1.477254 H        1 UNL1     0.0308
     91 H         8.576829   -7.591282   -1.21383 H        1 UNL1     0.0233
     92 H         8.43008   -6.291265   -2.423754 H        1 UNL1     0.0233
     93 H         8.584591   -5.901244   -0.724162 H        1 UNL1     0.0233
     94 H         6.43636   -7.32904   -3.34668 H        1 UNL1     0.0233
     95 H         6.157309   -8.5943   -2.140206 H        1 UNL1     0.0233
     96 H         4.90227   -7.373397   -2.453676 H        1 UNL1     0.0233
     97 H         7.375932   2.127672   8.30067 H        1 UNL1     0.0280
     98 H         8.161277   1.086079   9.45631 H        1 UNL1     0.0280
     99 H         9.03625   1.593024   7.98079 H        1 UNL1     0.0280
     100 H         10.007691   -0.719672   8.251529 H        1 UNL1     0.2922
     101 H         -0.690741   -2.495199   4.702931 H        1 UNL1     0.0236
     102 H         0.211597   -2.895958   6.216615 H        1 UNL1     0.0236
     103 H         -0.363198   -4.140281   5.150421 H        1 UNL1     0.0236
     104 H         -0.802772   -3.323016   2.995975 H        1 UNL1     0.2098
     105 H         1.614717   -0.194804   0.60459 H        1 UNL1     0.0234
     106 H         0.656568   -1.556744   -0.042069 H        1 UNL1     0.0234
     107 H         0.0   0.0   -0.0 H        1 UNL1     0.0234
     108 H         0.938534   1.27399   3.550845 H        1 UNL1     0.2098
     109 H         2.750134   0.455373   1.867877 H        1 UNL1     0.0234
     110 H         2.917294   0.736968   0.105616 H        1 UNL1     0.0234
     111 H         4.04391   1.437915   1.213882 H        1 UNL1     0.0234
     112 H         -2.50907   2.533866   -2.142351 H        1 UNL1     0.0342
     113 H         -1.900935   3.302578   -0.633215 H        1 UNL1     0.0342
     114 H         -1.209987   3.738335   -2.198679 H        1 UNL1     0.0342
     115 H         -1.552522   4.169649   1.421149 H        1 UNL1     0.0234
     116 H         -2.086345   3.249139   2.831283 H        1 UNL1     0.0234
     117 H         -0.48988   4.021677   2.741106 H        1 UNL1     0.0234
     118 H         5.662091   2.98291   4.420701 H        1 UNL1     0.0309
     119 H         6.830059   1.627932   4.509849 H        1 UNL1     0.0309
     120 H         5.439297   1.574633   3.449142 H        1 UNL1     0.0309
     121 H         1.870929   4.367998   4.978336 H        1 UNL1     0.0524
     122 H         1.756077   5.56718   3.683876 H        1 UNL1     0.0524
     123 H         0.279763   5.040174   4.530342 H        1 UNL1     0.0524
@<TRIPOS>BOND
     1     1     2    1
     2     1    42    1
     3     2     3    2
     4     3     4    1
     5     4     5    2
     6     5     7    1
     7     6    75    1
     8     6    76    1
     9     6    77    1
    10     7     9   am
    11     9    10    1
    12    10    11    2
    13    10    43    1
    14    11    14    1
    15    11    15    1
    16    12    13   ar
    17    12    27   ar
    18    12    43    1
    19    13    14    1
    20    13    30   ar
    21    14    17    2
    22    15    16    1
    23    16    17    1
    24    16    18    1
    25    16    22    1
    26    18    19    1
    27    19    20    1
    28    20    21    1
    29    21    22    1
    30    23    24    1
    31    23    88    1
    32    23    89    1
    33    24    25    1
    34    24    26    1
    35    24    90    1
    36    25    91    1
    37    25    92    1
    38    25    93    1
    39    26    94    1
    40    26    95    1
    41    26    96    1
    42    27    28   ar
    43    28    29   ar
    44    29    30   ar
    45    29    31    1
    46    30    33    1
    47    31    32    1
    48    32    33    1
    49    32    35    1
    50    34    97    1
    51    34    98    1
    52    34    99    1
    53    35    61    1
    54    36    37    1
    55    36    60    1
    56    37    38    1
    57    38    39    1
    58    39    40    1
    59    40    41    1
    60    41    42    1
    61    45   100    1
    62    47   101    1
    63    47   102    1
    64    47   103    1
    65    48   104    1
    66    49   105    1
    67    49   106    1
    68    49   107    1
    69    50   108    1
    70    51    59    1
    71    52   109    1
    72    52   110    1
    73    52   111    1
    74    53    54    1
    75    54    55    2
    76    54    56    1
    77    56   112    1
    78    56   113    1
    79    56   114    1
    80    57   115    1
    81    57   116    1
    82    57   117    1
    83    58   118    1
    84    58   119    1
    85    58   120    1
    86    59   121    1
    87    59   122    1
    88    59   123    1
    89    60    61    2
    90     1    47    1
    91     1    62    1
    92     2    63    1
    93     3    64    1
    94     4    65    1
    95     5     6    1
    96     7     8    2
    97     9    78    1
    98    15    79    1
    99    18    80    1
   100    18    81    1
   101    19    82    1
   102    19    83    1
   103    20    23    1
   104    21    84    1
   105    21    85    1
   106    22    86    1
   107    22    87    1
   108    27    45    1
   109    28    34    1
   110    32    58    1
   111    33    46    2
   112    36    51    1
   113    36    66    1
   114    37    52    1
   115    37    67    1
   116    38    53    1
   117    38    68    1
   118    42    48    1
   119    42    72    1
   120    43    44    2
   121    60    73    1
   122    61    74    1
   123    39    69    1
   124    39    57    1
   125    40    70    1
   126    40    50    1
   127    41    71    1
   128    41    49    1
