@<TRIPOS>MOLECULE
*****
 123 128 0 0 0
SMALL
GASTEIGER

@<TRIPOS>ATOM
     1 C         3.704752   1.235931   -3.792175 C.3        1 UNL1     0.0009
     2 C         5.426971   0.887399   -4.383379 C.2        1 UNL1     -0.0787
     3 C         6.804176   1.300159   -4.553617 C.2        1 UNL1     -0.0649
     4 C         8.101374   0.381473   -5.136412 C.2        1 UNL1     -0.0542
     5 C         9.512469   0.265211   -5.185134 C.2        1 UNL1     0.0115
     6 C         10.845353   0.997434   -4.867972 C.3        1 UNL1     -0.0348
     7 C         10.162228   -1.146799   -5.58642 C.2        1 UNL1     0.2441
     8 O         10.619635   -1.377093   -6.697397 O.2        1 UNL1     -0.2702
     9 N         10.407689   -2.010777   -4.505012 N.am        1 UNL1     -0.2772
     10 C         9.297543   -2.780655   -4.243885 C.2        1 UNL1     0.1049
     11 C         8.362452   -2.219791   -3.498729 C.2        1 UNL1     0.0801
     12 C         7.595117   -4.244868   -5.346229 C.ar        1 UNL1     0.0753
     13 C         6.60239   -3.465115   -4.671627 C.ar        1 UNL1     0.0305
     14 C         6.960139   -2.511863   -3.623592 C.2        1 UNL1     0.0924
     15 N         8.399486   -1.089956   -2.771661 N.pl3        1 UNL1     -0.3170
     16 C         7.180599   -1.017052   -2.010574 C.3        1 UNL1     0.1275
     17 N         6.175156   -1.785588   -2.832863 N.2        1 UNL1     -0.2557
     18 C         7.39407   -1.828252   -0.736178 C.3        1 UNL1     0.0016
     19 C         8.618072   -1.287212   -0.014592 C.3        1 UNL1     0.0026
     20 N         8.397332   0.119613   0.290606 N.3        1 UNL1     -0.3018
     21 C         8.121684   0.971378   -0.868222 C.3        1 UNL1     0.0026
     22 C         6.885847   0.412395   -1.575428 C.3        1 UNL1     0.0016
     23 C         9.36307   0.650752   1.231821 C.3        1 UNL1     0.0012
     24 C         9.163169   0.023333   2.620396 C.3        1 UNL1     -0.0339
     25 C         9.814914   0.875615   3.721713 C.3        1 UNL1     -0.0615
     26 C         7.683666   -0.195516   2.88489 C.3        1 UNL1     -0.0615
     27 C         7.23801   -5.236438   -6.256932 C.ar        1 UNL1     0.1347
     28 C         5.925105   -5.565102   -6.543827 C.ar        1 UNL1     0.0342
     29 C         4.965539   -4.751435   -5.90481 C.ar        1 UNL1     0.1435
     30 C         5.309223   -3.730604   -5.017677 C.ar        1 UNL1     0.0774
     31 O         3.643933   -5.016018   -5.996244 O.3        1 UNL1     -0.4436
     32 C         3.056891   -4.318638   -4.887228 C.3        1 UNL1     0.3143
     33 C         4.039902   -3.216761   -4.546981 C.2        1 UNL1     0.2504
     34 C         5.466224   -6.773829   -7.310971 C.3        1 UNL1     -0.0327
     35 O         1.86603   -3.681963   -5.366549 O.2        1 UNL1     -0.4528
     36 C         -0.50065   -3.535134   -2.402539 C.3        1 UNL1     0.0854
     37 C         -0.282852   -2.878321   -0.985258 C.3        1 UNL1     0.0236
     38 C         -1.399823   -1.810541   -0.556346 C.3        1 UNL1     0.1131
     39 C         -1.78873   -0.64025   -1.547023 C.3        1 UNL1     0.0200
     40 C         -0.604946   0.197204   -2.3715 C.3        1 UNL1     0.0661
     41 C         0.78676   0.88371   -1.686317 C.3        1 UNL1     0.0091
     42 C         2.466536   1.117074   -2.385813 C.3        1 UNL1     0.0661
     43 C         9.015373   -4.023635   -4.97719 C.2        1 UNL1     0.2131
     44 O         9.894533   -4.845784   -5.161267 O.2        1 UNL1     -0.2851
     45 O         8.266276   -5.918423   -6.904238 O.3        1 UNL1     -0.5056
     46 O         3.821069   -2.146396   -4.025173 O.2        1 UNL1     -0.2836
     47 C         2.993778   2.224537   -4.755065 C.3        1 UNL1     -0.0566
     48 O         2.575209   2.530645   -1.950929 O.3        1 UNL1     -0.3909
     49 C         0.963412   0.335608   -0.287792 C.3        1 UNL1     -0.0577
     50 O         -0.275548   -0.459138   -3.579157 O.3        1 UNL1     -0.3910
     51 O         -1.536817   -2.984588   -3.184004 O.3        1 UNL1     -0.3753
     52 C         1.233785   -2.667391   -0.668607 C.3        1 UNL1     -0.0564
     53 O         -1.373726   -1.468121   0.904611 O.3        1 UNL1     -0.4608
     54 C         -1.65972   -0.2388   1.438379 C.2        1 UNL1     0.3042
     55 O         -1.21138   0.851291   1.085491 O.2        1 UNL1     -0.2512
     56 C         -2.682835   -0.283633   2.537442 C.3        1 UNL1     0.0332
     57 C         -3.07735   -1.112082   -2.368612 C.3        1 UNL1     -0.0567
     58 C         3.009269   -5.324604   -3.713646 C.3        1 UNL1     0.0210
     59 C         -2.319238   -3.938919   -3.900199 C.3        1 UNL1     0.0372
     60 C         0.710213   -3.581965   -3.266703 C.2        1 UNL1     -0.0208
     61 C         0.861521   -3.290403   -4.559313 C.2        1 UNL1     0.0882
     62 H         3.412776   0.227068   -4.107859 H        1 UNL1     0.0365
     63 H         5.286437   -0.086417   -4.857092 H        1 UNL1     0.0576
     64 H         7.173334   2.244128   -4.146488 H        1 UNL1     0.0615
     65 H         7.620984   -0.491278   -5.586982 H        1 UNL1     0.0622
     66 H         -0.756492   -4.581756   -2.185345 H        1 UNL1     0.0645
     67 H         -0.480986   -3.700283   -0.275552 H        1 UNL1     0.0362
     68 H         -2.280908   -2.469396   -0.522885 H        1 UNL1     0.0741
     69 H         -2.28434   0.140611   -0.985744 H        1 UNL1     0.0359
     70 H         -1.185038   1.084944   -2.688472 H        1 UNL1     0.0600
     71 H         0.413966   1.90488   -1.473728 H        1 UNL1     0.0348
     72 H         1.797715   0.968869   -3.246062 H        1 UNL1     0.0602
     73 H         1.507631   -4.028872   -2.726659 H        1 UNL1     0.0628
     74 H         0.114661   -2.779202   -5.167681 H        1 UNL1     0.1022
     75 H         11.439362   1.151935   -5.80088 H        1 UNL1     0.0279
     76 H         10.761955   2.007584   -4.473369 H        1 UNL1     0.0279
     77 H         11.535713   0.384185   -4.270453 H        1 UNL1     0.0279
     78 H         10.60536   -1.464769   -3.669023 H        1 UNL1     0.1553
     79 H         9.24921   -0.641874   -2.481619 H        1 UNL1     0.1484
     80 H         6.495831   -1.755206   -0.111199 H        1 UNL1     0.0317
     81 H         7.530084   -2.890356   -0.966582 H        1 UNL1     0.0317
     82 H         9.53417   -1.424556   -0.60773 H        1 UNL1     0.0428
     83 H         8.753055   -1.88091   0.890036 H        1 UNL1     0.0428
     84 H         7.881043   2.006027   -0.604773 H        1 UNL1     0.0428
     85 H         8.996274   1.060411   -1.527374 H        1 UNL1     0.0428
     86 H         6.636265   1.131204   -2.333721 H        1 UNL1     0.0317
     87 H         6.021504   0.444563   -0.900912 H        1 UNL1     0.0317
     88 H         10.367803   0.392094   0.872793 H        1 UNL1     0.0429
     89 H         9.311196   1.746044   1.281002 H        1 UNL1     0.0429
     90 H         9.620388   -0.973157   2.633486 H        1 UNL1     0.0308
     91 H         9.754166   0.380955   4.695737 H        1 UNL1     0.0233
     92 H         10.862719   1.075917   3.485931 H        1 UNL1     0.0233
     93 H         9.333615   1.854946   3.831705 H        1 UNL1     0.0233
     94 H         7.546991   -0.806492   3.783703 H        1 UNL1     0.0233
     95 H         7.187826   0.764875   3.05149 H        1 UNL1     0.0233
     96 H         7.198928   -0.702149   2.045653 H        1 UNL1     0.0233
     97 H         5.576911   -7.687958   -6.735343 H        1 UNL1     0.0280
     98 H         4.403378   -6.714609   -7.5795 H        1 UNL1     0.0280
     99 H         6.060583   -6.872622   -8.234048 H        1 UNL1     0.0280
     100 H         7.996205   -6.701314   -7.35119 H        1 UNL1     0.2922
     101 H         3.726993   2.683668   -5.417824 H        1 UNL1     0.0236
     102 H         2.389144   2.967855   -4.23653 H        1 UNL1     0.0236
     103 H         2.289331   1.710632   -5.430231 H        1 UNL1     0.0236
     104 H         1.667821   2.87224   -1.82874 H        1 UNL1     0.2098
     105 H         1.644249   -0.509118   -0.219161 H        1 UNL1     0.0234
     106 H         1.211115   1.082677   0.466169 H        1 UNL1     0.0234
     107 H         0.0   0.0   0.0 H        1 UNL1     0.0234
     108 H         -0.525177   -1.397726   -3.476662 H        1 UNL1     0.2098
     109 H         1.389749   -2.063825   0.236432 H        1 UNL1     0.0234
     110 H         1.790283   -3.606914   -0.582868 H        1 UNL1     0.0234
     111 H         1.74488   -2.128109   -1.477249 H        1 UNL1     0.0234
     112 H         -3.546792   0.330981   2.266934 H        1 UNL1     0.0342
     113 H         -2.986556   -1.302528   2.77292 H        1 UNL1     0.0342
     114 H         -2.233156   0.14727   3.442581 H        1 UNL1     0.0342
     115 H         -4.008993   -0.888722   -1.830709 H        1 UNL1     0.0234
     116 H         -3.157414   -0.667511   -3.362592 H        1 UNL1     0.0234
     117 H         -3.152154   -2.207649   -2.478514 H        1 UNL1     0.0234
     118 H         4.01293   -5.528087   -3.301015 H        1 UNL1     0.0309
     119 H         2.346129   -5.007444   -2.902562 H        1 UNL1     0.0309
     120 H         2.657806   -6.315013   -4.022954 H        1 UNL1     0.0309
     121 H         -1.636845   -4.543209   -4.497301 H        1 UNL1     0.0524
     122 H         -2.865295   -4.621359   -3.227789 H        1 UNL1     0.0524
     123 H         -3.032816   -3.43262   -4.544064 H        1 UNL1     0.0524
@<TRIPOS>BOND
     1     1     2    1
     2     1    42    1
     3     2     3    2
     4     3     4    1
     5     4     5    2
     6     5     7    1
     7     6    75    1
     8     6    76    1
     9     6    77    1
    10     7     9   am
    11     9    10    1
    12    10    11    2
    13    10    43    1
    14    11    14    1
    15    11    15    1
    16    12    13   ar
    17    12    27   ar
    18    12    43    1
    19    13    14    1
    20    13    30   ar
    21    14    17    2
    22    15    16    1
    23    16    17    1
    24    16    18    1
    25    16    22    1
    26    18    19    1
    27    19    20    1
    28    20    21    1
    29    21    22    1
    30    23    24    1
    31    23    88    1
    32    23    89    1
    33    24    25    1
    34    24    26    1
    35    24    90    1
    36    25    91    1
    37    25    92    1
    38    25    93    1
    39    26    94    1
    40    26    95    1
    41    26    96    1
    42    27    28   ar
    43    28    29   ar
    44    29    30   ar
    45    29    31    1
    46    30    33    1
    47    31    32    1
    48    32    33    1
    49    32    35    1
    50    34    97    1
    51    34    98    1
    52    34    99    1
    53    35    61    1
    54    36    37    1
    55    36    60    1
    56    37    38    1
    57    38    39    1
    58    39    40    1
    59    40    41    1
    60    41    42    1
    61    45   100    1
    62    47   101    1
    63    47   102    1
    64    47   103    1
    65    48   104    1
    66    49   105    1
    67    49   106    1
    68    49   107    1
    69    50   108    1
    70    51    59    1
    71    52   109    1
    72    52   110    1
    73    52   111    1
    74    53    54    1
    75    54    55    2
    76    54    56    1
    77    56   112    1
    78    56   113    1
    79    56   114    1
    80    57   115    1
    81    57   116    1
    82    57   117    1
    83    58   118    1
    84    58   119    1
    85    58   120    1
    86    59   121    1
    87    59   122    1
    88    59   123    1
    89    60    61    2
    90     1    47    1
    91     1    62    1
    92     2    63    1
    93     3    64    1
    94     4    65    1
    95     5     6    1
    96     7     8    2
    97     9    78    1
    98    15    79    1
    99    18    80    1
   100    18    81    1
   101    19    82    1
   102    19    83    1
   103    20    23    1
   104    21    84    1
   105    21    85    1
   106    22    86    1
   107    22    87    1
   108    27    45    1
   109    28    34    1
   110    32    58    1
   111    33    46    2
   112    36    51    1
   113    36    66    1
   114    37    52    1
   115    37    67    1
   116    38    53    1
   117    38    68    1
   118    42    48    1
   119    42    72    1
   120    43    44    2
   121    60    73    1
   122    61    74    1
   123    39    69    1
   124    39    57    1
   125    40    70    1
   126    40    50    1
   127    41    71    1
   128    41    49    1
