@<TRIPOS>MOLECULE
*****
 123 128 0 0 0
SMALL
GASTEIGER

@<TRIPOS>ATOM
     1 C         4.952272   1.629406   1.566315 C.3        1 UNL1     0.0009
     2 C         6.620382   2.167512   0.962257 C.2        1 UNL1     -0.0787
     3 C         8.031158   1.905451   0.769689 C.2        1 UNL1     -0.0649
     4 C         9.164222   2.859194   -0.050613 C.2        1 UNL1     -0.0542
     5 C         10.427817   2.868083   -0.69118 C.2        1 UNL1     0.0115
     6 C         11.716712   2.037138   -0.939379 C.3        1 UNL1     -0.0348
     7 C         10.786003   4.075986   -1.685998 C.2        1 UNL1     0.2441
     8 O         11.515203   5.005522   -1.368576 O.2        1 UNL1     -0.2702
     9 N         10.419871   3.863304   -3.02647 N.am        1 UNL1     -0.2772
     10 C         9.127772   4.283503   -3.243808 C.2        1 UNL1     0.1049
     11 C         8.175124   3.429363   -2.916505 C.2        1 UNL1     0.0801
     12 C         7.579879   6.212616   -2.869792 C.ar        1 UNL1     0.0753
     13 C         6.655491   5.264359   -2.326721 C.ar        1 UNL1     0.0305
     14 C         6.872392   3.824999   -2.454187 C.2        1 UNL1     0.0924
     15 N         8.255686   2.126335   -2.596886 N.pl3        1 UNL1     -0.3170
     16 C         6.914548   1.615569   -2.493343 C.3        1 UNL1     0.1275
     17 N         6.083032   2.813412   -2.104143 N.2        1 UNL1     -0.2557
     18 C         6.468015   1.229118   -3.9001 C.3        1 UNL1     0.0016
     19 C         7.472472   0.243504   -4.475619 C.3        1 UNL1     0.0026
     20 N         7.533681   -0.923324   -3.606255 N.3        1 UNL1     -0.3018
     21 C         7.895445   -0.643827   -2.215076 C.3        1 UNL1     0.0026
     22 C         6.870784   0.344507   -1.655469 C.3        1 UNL1     0.0016
     23 C         8.227724   -2.042198   -4.212116 C.3        1 UNL1     0.0012
     24 C         8.705324   -1.677711   -5.626613 C.3        1 UNL1     -0.0339
     25 C         8.658818   -2.893569   -6.566605 C.3        1 UNL1     -0.0615
     26 C         7.887162   -0.51929   -6.170169 C.3        1 UNL1     -0.0615
     27 C         7.307322   7.578441   -2.851062 C.ar        1 UNL1     0.1347
     28 C         6.130706   8.109997   -2.353997 C.ar        1 UNL1     0.0342
     29 C         5.257111   7.161892   -1.78033 C.ar        1 UNL1     0.1435
     30 C         5.533041   5.794178   -1.759349 C.ar        1 UNL1     0.0774
     31 O         4.023265   7.508407   -1.353063 O.3        1 UNL1     -0.4436
     32 C         3.298228   6.270676   -1.296351 C.3        1 UNL1     0.3143
     33 C         4.358285   5.196509   -1.159759 C.2        1 UNL1     0.2504
     34 C         5.661422   9.527732   -2.526913 C.3        1 UNL1     -0.0327
     35 O         2.546735   6.272726   -0.076307 O.2        1 UNL1     -0.4528
     36 C         -0.557296   4.198565   -0.762555 C.3        1 UNL1     0.0854
     37 C         -0.668321   2.704369   -1.255074 C.3        1 UNL1     0.0236
     38 C         -1.547773   1.746853   -0.316206 C.3        1 UNL1     0.1131
     39 C         -1.26284   1.695018   1.238913 C.3        1 UNL1     0.0200
     40 C         0.303428   1.632007   1.809239 C.3        1 UNL1     0.0661
     41 C         1.509593   0.560765   1.284628 C.3        1 UNL1     0.0091
     42 C         3.32636   0.782813   1.160299 C.3        1 UNL1     0.0661
     43 C         8.798159   5.686825   -3.534321 C.2        1 UNL1     0.2131
     44 O         9.443318   6.316538   -4.352838 O.2        1 UNL1     -0.2851
     45 O         8.279963   8.43737   -3.358654 O.3        1 UNL1     -0.5056
     46 O         4.261106   4.102349   -0.650618 O.2        1 UNL1     -0.2836
     47 C         4.889312   1.705807   3.115567 C.3        1 UNL1     -0.0566
     48 O         3.643733   -0.5075   1.818694 O.3        1 UNL1     -0.3909
     49 C         1.055929   -0.092907   -0.001605 C.3        1 UNL1     -0.0577
     50 O         0.839152   2.932629   1.947463 O.3        1 UNL1     -0.3910
     51 O         -1.089132   4.467204   0.515105 O.3        1 UNL1     -0.3753
     52 C         0.652204   2.216411   -1.935559 C.3        1 UNL1     -0.0564
     53 O         -1.928384   0.450305   -0.969218 O.3        1 UNL1     -0.4608
     54 C         -2.049264   -0.756173   -0.330682 C.2        1 UNL1     0.3042
     55 O         -1.248201   -1.690004   -0.340588 O.2        1 UNL1     -0.2512
     56 C         -3.292961   -0.873029   0.503748 C.3        1 UNL1     0.0332
     57 C         -2.274145   2.710756   1.948639 C.3        1 UNL1     -0.0567
     58 C         2.598989   6.110175   -2.666326 C.3        1 UNL1     0.0210
     59 C         -1.802637   5.698319   0.620614 C.3        1 UNL1     0.0372
     60 C         0.818094   4.766928   -0.783161 C.2        1 UNL1     -0.0208
     61 C         1.466512   5.494492   0.127306 C.2        1 UNL1     0.0882
     62 H         4.533477   2.570255   1.189319 H        1 UNL1     0.0365
     63 H         6.401038   3.187735   0.640536 H        1 UNL1     0.0576
     64 H         8.472177   0.936798   1.015294 H        1 UNL1     0.0615
     65 H         8.6556   3.81904   -0.175041 H        1 UNL1     0.0622
     66 H         -1.132907   4.775714   -1.499858 H        1 UNL1     0.0645
     67 H         -1.299713   2.766079   -2.158454 H        1 UNL1     0.0362
     68 H         -2.52702   2.2392   -0.417164 H        1 UNL1     0.0741
     69 H         -1.698753   0.790931   1.642662 H        1 UNL1     0.0359
     70 H         0.114954   1.298688   2.847717 H        1 UNL1     0.0600
     71 H         1.364638   -0.263743   2.009977 H        1 UNL1     0.0348
     72 H         2.972825   1.5588   1.854685 H        1 UNL1     0.0602
     73 H         1.242079   4.6206   -1.745488 H        1 UNL1     0.0628
     74 H         1.12797   5.642659   1.153304 H        1 UNL1     0.1022
     75 H         12.131162   1.658736   0.026062 H        1 UNL1     0.0279
     76 H         11.601083   1.123836   -1.51867 H        1 UNL1     0.0279
     77 H         12.55254   2.648999   -1.309135 H        1 UNL1     0.0279
     78 H         10.458048   2.868322   -3.23773 H        1 UNL1     0.1553
     79 H         9.042891   1.545631   -2.820546 H        1 UNL1     0.1484
     80 H         5.463059   0.792973   -3.849041 H        1 UNL1     0.0317
     81 H         6.394071   2.112326   -4.543626 H        1 UNL1     0.0317
     82 H         8.466218   0.699157   -4.597111 H        1 UNL1     0.0428
     83 H         7.135899   -0.017358   -5.479471 H        1 UNL1     0.0428
     84 H         7.856438   -1.524393   -1.566313 H        1 UNL1     0.0428
     85 H         8.932456   -0.291917   -2.12516 H        1 UNL1     0.0428
     86 H         7.086633   0.422213   -0.606013 H        1 UNL1     0.0317
     87 H         5.869221   -0.102193   -1.67618 H        1 UNL1     0.0317
     88 H         9.106064   -2.273672   -3.595485 H        1 UNL1     0.0429
     89 H         7.598535   -2.941477   -4.226064 H        1 UNL1     0.0429
     90 H         9.739056   -1.315904   -5.574589 H        1 UNL1     0.0308
     91 H         7.713613   -3.435917   -6.468892 H        1 UNL1     0.0233
     92 H         8.788511   -2.583377   -7.606109 H        1 UNL1     0.0233
     93 H         9.460894   -3.61237   -6.359644 H        1 UNL1     0.0233
     94 H         7.93526   -0.503539   -7.264369 H        1 UNL1     0.0233
     95 H         6.838882   -0.633833   -5.880423 H        1 UNL1     0.0233
     96 H         8.25452   0.439731   -5.794278 H        1 UNL1     0.0233
     97 H         5.330939   9.726591   -3.542032 H        1 UNL1     0.0280
     98 H         4.8053   9.761975   -1.880815 H        1 UNL1     0.0280
     99 H         6.48522   10.220683   -2.289699 H        1 UNL1     0.0280
     100 H         7.983543   9.317171   -3.512624 H        1 UNL1     0.2922
     101 H         5.89535   1.817618   3.519351 H        1 UNL1     0.0236
     102 H         4.359175   0.866749   3.564922 H        1 UNL1     0.0236
     103 H         4.346739   2.60031   3.464382 H        1 UNL1     0.0236
     104 H         2.869576   -0.761608   2.358213 H        1 UNL1     0.2098
     105 H         1.430491   0.3837   -0.904024 H        1 UNL1     0.0234
     106 H         1.219078   -1.169573   -0.047436 H        1 UNL1     0.0234
     107 H         -0.0   0.0   0.0 H        1 UNL1     0.0234
     108 H         0.335804   3.518704   1.35003 H        1 UNL1     0.2098
     109 H         0.644229   1.135087   -2.131484 H        1 UNL1     0.0234
     110 H         0.883926   2.754752   -2.86089 H        1 UNL1     0.0234
     111 H         1.527112   2.396287   -1.29671 H        1 UNL1     0.0234
     112 H         -3.317503   -1.847603   1.000688 H        1 UNL1     0.0342
     113 H         -3.37847   -0.063419   1.22698 H        1 UNL1     0.0342
     114 H         -4.162112   -0.814427   -0.16581 H        1 UNL1     0.0342
     115 H         -3.241077   2.237554   2.168438 H        1 UNL1     0.0234
     116 H         -1.896303   3.134312   2.881315 H        1 UNL1     0.0234
     117 H         -2.588216   3.545205   1.298258 H        1 UNL1     0.0234
     118 H         3.315609   5.874411   -3.472476 H        1 UNL1     0.0309
     119 H         1.807207   5.354382   -2.658625 H        1 UNL1     0.0309
     120 H         2.128974   7.038245   -3.009661 H        1 UNL1     0.0309
     121 H         -1.757698   6.017256   1.661583 H        1 UNL1     0.0524
     122 H         -1.351353   6.497171   0.008882 H        1 UNL1     0.0524
     123 H         -2.835989   5.561234   0.314861 H        1 UNL1     0.0524
@<TRIPOS>BOND
     1     1     2    1
     2     1    42    1
     3     2     3    2
     4     3     4    1
     5     4     5    2
     6     5     7    1
     7     6    75    1
     8     6    76    1
     9     6    77    1
    10     7     9   am
    11     9    10    1
    12    10    11    2
    13    10    43    1
    14    11    14    1
    15    11    15    1
    16    12    13   ar
    17    12    27   ar
    18    12    43    1
    19    13    14    1
    20    13    30   ar
    21    14    17    2
    22    15    16    1
    23    16    17    1
    24    16    18    1
    25    16    22    1
    26    18    19    1
    27    19    20    1
    28    20    21    1
    29    21    22    1
    30    23    24    1
    31    23    88    1
    32    23    89    1
    33    24    25    1
    34    24    26    1
    35    24    90    1
    36    25    91    1
    37    25    92    1
    38    25    93    1
    39    26    94    1
    40    26    95    1
    41    26    96    1
    42    27    28   ar
    43    28    29   ar
    44    29    30   ar
    45    29    31    1
    46    30    33    1
    47    31    32    1
    48    32    33    1
    49    32    35    1
    50    34    97    1
    51    34    98    1
    52    34    99    1
    53    35    61    1
    54    36    37    1
    55    36    60    1
    56    37    38    1
    57    38    39    1
    58    39    40    1
    59    40    41    1
    60    41    42    1
    61    45   100    1
    62    47   101    1
    63    47   102    1
    64    47   103    1
    65    48   104    1
    66    49   105    1
    67    49   106    1
    68    49   107    1
    69    50   108    1
    70    51    59    1
    71    52   109    1
    72    52   110    1
    73    52   111    1
    74    53    54    1
    75    54    55    2
    76    54    56    1
    77    56   112    1
    78    56   113    1
    79    56   114    1
    80    57   115    1
    81    57   116    1
    82    57   117    1
    83    58   118    1
    84    58   119    1
    85    58   120    1
    86    59   121    1
    87    59   122    1
    88    59   123    1
    89    60    61    2
    90     1    47    1
    91     1    62    1
    92     2    63    1
    93     3    64    1
    94     4    65    1
    95     5     6    1
    96     7     8    2
    97     9    78    1
    98    15    79    1
    99    18    80    1
   100    18    81    1
   101    19    82    1
   102    19    83    1
   103    20    23    1
   104    21    84    1
   105    21    85    1
   106    22    86    1
   107    22    87    1
   108    27    45    1
   109    28    34    1
   110    32    58    1
   111    33    46    2
   112    36    51    1
   113    36    66    1
   114    37    52    1
   115    37    67    1
   116    38    53    1
   117    38    68    1
   118    42    48    1
   119    42    72    1
   120    43    44    2
   121    60    73    1
   122    61    74    1
   123    39    69    1
   124    39    57    1
   125    40    70    1
   126    40    50    1
   127    41    71    1
   128    41    49    1
