@<TRIPOS>MOLECULE
*****
 123 128 0 0 0
SMALL
GASTEIGER

@<TRIPOS>ATOM
     1 C         5.058223   2.040515   0.509188 C.3        1 UNL1     0.0009
     2 C         6.410542   3.004967   -0.314281 C.2        1 UNL1     -0.0787
     3 C         7.684252   3.046919   -1.001267 C.2        1 UNL1     -0.0649
     4 C         8.446521   4.387974   -1.699031 C.2        1 UNL1     -0.0542
     5 C         9.423155   4.812435   -2.633428 C.2        1 UNL1     0.0115
     6 C         10.582414   4.327977   -3.54707 C.3        1 UNL1     -0.0348
     7 C         9.388699   6.3291   -3.158337 C.2        1 UNL1     0.2441
     8 O         10.150644   7.193154   -2.746786 O.2        1 UNL1     -0.2702
     9 N         8.603825   6.537533   -4.305804 N.am        1 UNL1     -0.2772
     10 C         7.299981   6.801631   -3.954287 C.2        1 UNL1     0.1049
     11 C         6.539986   5.750618   -3.705288 C.2        1 UNL1     0.0801
     12 C         5.902105   8.219455   -2.440005 C.ar        1 UNL1     0.0753
     13 C         5.243818   7.011308   -2.045484 C.ar        1 UNL1     0.0305
     14 C         5.453577   5.756087   -2.763448 C.2        1 UNL1     0.0924
     15 N         6.765837   4.446451   -3.939099 N.pl3        1 UNL1     -0.3170
     16 C         5.553773   3.730392   -3.64175 C.3        1 UNL1     0.1275
     17 N         4.860253   4.576714   -2.602283 N.2        1 UNL1     -0.2557
     18 C         4.676828   3.788341   -4.888871 C.3        1 UNL1     0.0016
     19 C         5.464097   3.229488   -6.063384 C.3        1 UNL1     0.0026
     20 N         5.850497   1.858966   -5.757783 N.3        1 UNL1     -0.3018
     21 C         6.64594   1.694244   -4.53938 C.3        1 UNL1     0.0026
     22 C         5.834238   2.257975   -3.371799 C.3        1 UNL1     0.0016
     23 C         6.339618   1.139168   -6.916789 C.3        1 UNL1     0.0012
     24 C         5.190763   0.850347   -7.895805 C.3        1 UNL1     -0.0339
     25 C         5.126224   1.90403   -9.01368 C.3        1 UNL1     -0.0615
     26 C         5.326553   -0.55388   -8.458377 C.3        1 UNL1     -0.0615
     27 C         5.606095   9.435457   -1.828582 C.ar        1 UNL1     0.1347
     28 C         4.645573   9.574306   -0.842597 C.ar        1 UNL1     0.0342
     29 C         4.04534   8.36361   -0.43627 C.ar        1 UNL1     0.1435
     30 C         4.357831   7.132695   -1.014559 C.ar        1 UNL1     0.0774
     31 O         3.01378   8.346334   0.435849 O.3        1 UNL1     -0.4436
     32 C         2.390773   7.06862   0.235393 C.3        1 UNL1     0.3143
     33 C         3.470832   6.190949   -0.364087 C.2        1 UNL1     0.2504
     34 C         4.098579   10.87399   -0.32133 C.3        1 UNL1     -0.0327
     35 O         2.089497   6.533787   1.530166 O.2        1 UNL1     -0.4528
     36 C         -0.994854   4.369688   1.070228 C.3        1 UNL1     0.0854
     37 C         -1.213963   3.138784   0.108776 C.3        1 UNL1     0.0236
     38 C         -1.697623   1.792603   0.833768 C.3        1 UNL1     0.1131
     39 C         -0.908874   1.252716   2.094192 C.3        1 UNL1     0.0200
     40 C         0.759105   1.240091   2.105331 C.3        1 UNL1     0.0661
     41 C         1.756244   0.615611   0.883305 C.3        1 UNL1     0.0091
     42 C         3.419112   1.145082   0.317678 C.3        1 UNL1     0.0661
     43 C         6.845848   8.150105   -3.583158 C.2        1 UNL1     0.2131
     44 O         7.159803   9.115052   -4.256244 O.2        1 UNL1     -0.2851
     45 O         6.324649   10.556132   -2.239928 O.3        1 UNL1     -0.5056
     46 O         3.585465   4.98736   -0.300155 O.2        1 UNL1     -0.2836
     47 C         5.51297   1.567569   1.916138 C.3        1 UNL1     -0.0566
     48 O         3.980625   -0.22744   0.315532 O.3        1 UNL1     -0.3909
     49 C         0.921663   0.383498   -0.35649 C.3        1 UNL1     -0.0577
     50 O         1.266656   2.479566   2.55679 O.3        1 UNL1     -0.3910
     51 O         -1.078833   4.095811   2.450579 O.3        1 UNL1     -0.3753
     52 C         -0.180467   3.125778   -1.064538 C.3        1 UNL1     -0.0564
     53 O         -2.230826   0.758314   -0.114001 O.3        1 UNL1     -0.4608
     54 C         -2.353804   -0.579537   0.156111 C.2        1 UNL1     0.3042
     55 O         -1.71431   -1.504252   -0.343677 O.2        1 UNL1     -0.2512
     56 C         -3.358189   -0.886357   1.230255 C.3        1 UNL1     0.0332
     57 C         -1.658846   1.792147   3.399845 C.3        1 UNL1     -0.0567
     58 C         1.280478   7.28401   -0.819303 C.3        1 UNL1     0.0210
     59 C         -1.472372   5.203956   3.258667 C.3        1 UNL1     0.0372
     60 C         0.275221   5.11579   0.857149 C.2        1 UNL1     -0.0208
     61 C         1.165533   5.575951   1.737115 C.2        1 UNL1     0.0882
     62 H         4.506619   2.976796   0.65691 H        1 UNL1     0.0365
     63 H         6.062646   4.026542   -0.147478 H        1 UNL1     0.0576
     64 H         8.213908   2.133616   -1.281356 H        1 UNL1     0.0615
     65 H         7.893872   5.240902   -1.295825 H        1 UNL1     0.0622
     66 H         -1.80225   5.069142   0.811535 H        1 UNL1     0.0645
     67 H         -2.112139   3.409603   -0.473029 H        1 UNL1     0.0362
     68 H         -2.670298   2.131787   1.221556 H        1 UNL1     0.0741
     69 H         -1.154859   0.209041   2.237864 H        1 UNL1     0.0359
     70 H         0.938911   0.544407   2.947207 H        1 UNL1     0.0600
     71 H         1.888985   -0.420214   1.252635 H        1 UNL1     0.0348
     72 H         3.291741   1.569563   1.324111 H        1 UNL1     0.0602
     73 H         0.358664   5.377553   -0.168408 H        1 UNL1     0.0628
     74 H         1.183761   5.307164   2.793836 H        1 UNL1     0.1022
     75 H         10.717962   3.223285   -3.455875 H        1 UNL1     0.0279
     76 H         10.443536   4.45935   -4.617828 H        1 UNL1     0.0279
     77 H         11.565453   4.694964   -3.217441 H        1 UNL1     0.0279
     78 H         8.602463   5.694995   -4.876949 H        1 UNL1     0.1553
     79 H         7.452269   4.10763   -4.5879 H        1 UNL1     0.1484
     80 H         3.761523   3.211465   -4.709438 H        1 UNL1     0.0317
     81 H         4.363176   4.816455   -5.099239 H        1 UNL1     0.0317
     82 H         6.344705   3.846967   -6.293951 H        1 UNL1     0.0428
     83 H         4.820926   3.281869   -6.942382 H        1 UNL1     0.0428
     84 H         6.85483   0.6493   -4.289845 H        1 UNL1     0.0428
     85 H         7.641258   2.1495   -4.636333 H        1 UNL1     0.0428
     86 H         6.384969   2.001618   -2.485817 H        1 UNL1     0.0317
     87 H         4.898549   1.696587   -3.260325 H        1 UNL1     0.0317
     88 H         7.08032   1.771261   -7.423853 H        1 UNL1     0.0429
     89 H         6.852685   0.213963   -6.624327 H        1 UNL1     0.0429
     90 H         4.240721   0.863201   -7.348569 H        1 UNL1     0.0308
     91 H         6.07083   1.959477   -9.562995 H        1 UNL1     0.0233
     92 H         4.317768   1.676787   -9.712514 H        1 UNL1     0.0233
     93 H         4.923064   2.910349   -8.627828 H        1 UNL1     0.0233
     94 H         4.630192   -0.695801   -9.29191 H        1 UNL1     0.0233
     95 H         6.340985   -0.708402   -8.836546 H        1 UNL1     0.0233
     96 H         5.114201   -1.310649   -7.697999 H        1 UNL1     0.0233
     97 H         3.318529   10.720331   0.41836 H        1 UNL1     0.0280
     98 H         4.869207   11.477717   0.175563 H        1 UNL1     0.0280
     99 H         3.674103   11.456676   -1.155232 H        1 UNL1     0.0280
     100 H         5.793383   11.283243   -2.513222 H        1 UNL1     0.2922
     101 H         4.696692   1.038913   2.40794 H        1 UNL1     0.0236
     102 H         5.907931   2.374357   2.532646 H        1 UNL1     0.0236
     103 H         6.33094   0.82997   1.860763 H        1 UNL1     0.0236
     104 H         4.423919   -0.36611   1.175318 H        1 UNL1     0.2098
     105 H         0.708663   1.282569   -0.929302 H        1 UNL1     0.0234
     106 H         1.290946   -0.404148   -1.013126 H        1 UNL1     0.0234
     107 H         0.0   -0.0   0.0 H        1 UNL1     0.0234
     108 H         1.009293   3.15498   1.900019 H        1 UNL1     0.2098
     109 H         0.856703   3.075284   -0.704758 H        1 UNL1     0.0234
     110 H         -0.35785   2.320425   -1.785429 H        1 UNL1     0.0234
     111 H         -0.241553   4.041324   -1.667854 H        1 UNL1     0.0234
     112 H         -3.401033   -1.96614   1.402241 H        1 UNL1     0.0342
     113 H         -3.145415   -0.351617   2.154714 H        1 UNL1     0.0342
     114 H         -4.347075   -0.561929   0.878096 H        1 UNL1     0.0342
     115 H         -2.70431   1.456422   3.438325 H        1 UNL1     0.0234
     116 H         -1.184524   1.497223   4.337975 H        1 UNL1     0.0234
     117 H         -1.786422   2.888278   3.412593 H        1 UNL1     0.0234
     118 H         0.350202   7.671976   -0.368664 H        1 UNL1     0.0309
     119 H         1.586085   7.945952   -1.635783 H        1 UNL1     0.0309
     120 H         0.961454   6.348118   -1.290934 H        1 UNL1     0.0309
     121 H         -0.712823   5.977634   3.149744 H        1 UNL1     0.0524
     122 H         -2.434612   5.635741   2.936651 H        1 UNL1     0.0524
     123 H         -1.552347   4.900991   4.298816 H        1 UNL1     0.0524
@<TRIPOS>BOND
     1     1     2    1
     2     1    42    1
     3     2     3    2
     4     3     4    1
     5     4     5    2
     6     5     7    1
     7     6    75    1
     8     6    76    1
     9     6    77    1
    10     7     9   am
    11     9    10    1
    12    10    11    2
    13    10    43    1
    14    11    14    1
    15    11    15    1
    16    12    13   ar
    17    12    27   ar
    18    12    43    1
    19    13    14    1
    20    13    30   ar
    21    14    17    2
    22    15    16    1
    23    16    17    1
    24    16    18    1
    25    16    22    1
    26    18    19    1
    27    19    20    1
    28    20    21    1
    29    21    22    1
    30    23    24    1
    31    23    88    1
    32    23    89    1
    33    24    25    1
    34    24    26    1
    35    24    90    1
    36    25    91    1
    37    25    92    1
    38    25    93    1
    39    26    94    1
    40    26    95    1
    41    26    96    1
    42    27    28   ar
    43    28    29   ar
    44    29    30   ar
    45    29    31    1
    46    30    33    1
    47    31    32    1
    48    32    33    1
    49    32    35    1
    50    34    97    1
    51    34    98    1
    52    34    99    1
    53    35    61    1
    54    36    37    1
    55    36    60    1
    56    37    38    1
    57    38    39    1
    58    39    40    1
    59    40    41    1
    60    41    42    1
    61    45   100    1
    62    47   101    1
    63    47   102    1
    64    47   103    1
    65    48   104    1
    66    49   105    1
    67    49   106    1
    68    49   107    1
    69    50   108    1
    70    51    59    1
    71    52   109    1
    72    52   110    1
    73    52   111    1
    74    53    54    1
    75    54    55    2
    76    54    56    1
    77    56   112    1
    78    56   113    1
    79    56   114    1
    80    57   115    1
    81    57   116    1
    82    57   117    1
    83    58   118    1
    84    58   119    1
    85    58   120    1
    86    59   121    1
    87    59   122    1
    88    59   123    1
    89    60    61    2
    90     1    47    1
    91     1    62    1
    92     2    63    1
    93     3    64    1
    94     4    65    1
    95     5     6    1
    96     7     8    2
    97     9    78    1
    98    15    79    1
    99    18    80    1
   100    18    81    1
   101    19    82    1
   102    19    83    1
   103    20    23    1
   104    21    84    1
   105    21    85    1
   106    22    86    1
   107    22    87    1
   108    27    45    1
   109    28    34    1
   110    32    58    1
   111    33    46    2
   112    36    51    1
   113    36    66    1
   114    37    52    1
   115    37    67    1
   116    38    53    1
   117    38    68    1
   118    42    48    1
   119    42    72    1
   120    43    44    2
   121    60    73    1
   122    61    74    1
   123    39    69    1
   124    39    57    1
   125    40    70    1
   126    40    50    1
   127    41    71    1
   128    41    49    1
