@<TRIPOS>MOLECULE
*****
 123 128 0 0 0
SMALL
GASTEIGER

@<TRIPOS>ATOM
     1 C         5.166408   1.74688   0.505872 C.3        1 UNL1     0.0009
     2 C         6.605655   2.552816   -0.340339 C.2        1 UNL1     -0.0787
     3 C         7.889293   2.454441   -1.002641 C.2        1 UNL1     -0.0649
     4 C         8.769189   3.689545   -1.755407 C.2        1 UNL1     -0.0542
     5 C         9.791842   3.982189   -2.691152 C.2        1 UNL1     0.0115
     6 C         10.922163   3.35668   -3.55396 C.3        1 UNL1     -0.0348
     7 C         9.889313   5.465633   -3.296859 C.2        1 UNL1     0.2441
     8 O         10.712449   6.286867   -2.916665 O.2        1 UNL1     -0.2702
     9 N         9.142323   5.673276   -4.469481 N.am        1 UNL1     -0.2772
     10 C         7.858895   6.060273   -4.159048 C.2        1 UNL1     0.1049
     11 C         7.012   5.089038   -3.86975 C.2        1 UNL1     0.0801
     12 C         6.557238   7.666849   -2.751235 C.ar        1 UNL1     0.0753
     13 C         5.796598   6.539026   -2.306205 C.ar        1 UNL1     0.0305
     14 C         5.914834   5.23352   -2.951747 C.2        1 UNL1     0.0924
     15 N         7.134604   3.760077   -4.02899 N.pl3        1 UNL1     -0.3170
     16 C         5.863701   3.16122   -3.718459 C.3        1 UNL1     0.1275
     17 N         5.224979   4.116313   -2.739912 N.2        1 UNL1     -0.2557
     18 C         5.014286   3.221034   -4.984404 C.3        1 UNL1     0.0016
     19 C         5.77198   2.537097   -6.111222 C.3        1 UNL1     0.0026
     20 N         6.040619   1.158765   -5.725136 N.3        1 UNL1     -0.3018
     21 C         6.800576   0.997666   -4.483813 C.3        1 UNL1     0.0026
     22 C         6.019039   1.688042   -3.364672 C.3        1 UNL1     0.0016
     23 C         6.487844   0.33948   -6.833921 C.3        1 UNL1     0.0012
     24 C         5.33497   0.090747   -7.819197 C.3        1 UNL1     -0.0339
     25 C         5.364003   1.094337   -8.98368 C.3        1 UNL1     -0.0615
     26 C         5.375224   -1.343793   -8.316444 C.3        1 UNL1     -0.0615
     27 C         6.351547   8.934417   -2.211714 C.ar        1 UNL1     0.1347
     28 C         5.389993   9.20394   -1.254207 C.ar        1 UNL1     0.0342
     29 C         4.686812   8.06956   -0.796078 C.ar        1 UNL1     0.1435
     30 C         4.907188   6.787641   -1.301389 C.ar        1 UNL1     0.0774
     31 O         3.643561   8.183169   0.054643 O.3        1 UNL1     -0.4436
     32 C         2.921857   6.950643   -0.089905 C.3        1 UNL1     0.3143
     33 C         3.936252   5.957388   -0.619679 C.2        1 UNL1     0.2504
     34 C         4.942425   10.570036   -0.814246 C.3        1 UNL1     -0.0327
     35 O         2.557529   6.513593   1.225201 O.2        1 UNL1     -0.4528
     36 C         -0.685084   4.582638   0.819045 C.3        1 UNL1     0.0854
     37 C         -0.988394   3.322476   -0.079574 C.3        1 UNL1     0.0236
     38 C         -1.591491   2.061353   0.706294 C.3        1 UNL1     0.1131
     39 C         -0.869416   1.529714   2.009458 C.3        1 UNL1     0.0200
     40 C         0.791611   1.383596   2.055044 C.3        1 UNL1     0.0661
     41 C         1.753863   0.614857   0.888545 C.3        1 UNL1     0.0091
     42 C         3.463083   0.97704   0.329265 C.3        1 UNL1     0.0661
     43 C         7.510223   7.459223   -3.869703 C.2        1 UNL1     0.2131
     44 O         7.912338   8.35742   -4.586838 O.2        1 UNL1     -0.2851
     45 O         7.165391   9.969412   -2.667652 O.3        1 UNL1     -0.5056
     46 O         3.951485   4.753802   -0.489283 O.2        1 UNL1     -0.2836
     47 C         5.558758   1.316766   1.944985 C.3        1 UNL1     -0.0566
     48 O         3.910952   -0.434245   0.411761 O.3        1 UNL1     -0.3909
     49 C         0.922935   0.382982   -0.353745 C.3        1 UNL1     -0.0577
     50 O         1.39116   2.601119   2.449888 O.3        1 UNL1     -0.3910
     51 O         -0.812975   4.39252   2.210063 O.3        1 UNL1     -0.3753
     52 C         0.059101   3.162054   -1.229343 C.3        1 UNL1     -0.0564
     53 O         -2.192023   1.022887   -0.195523 O.3        1 UNL1     -0.4608
     54 C         -2.415671   -0.287145   0.138735 C.2        1 UNL1     0.3042
     55 O         -1.842635   -1.280171   -0.307773 O.2        1 UNL1     -0.2512
     56 C         -3.448004   -0.465282   1.215428 C.3        1 UNL1     0.0332
     57 C         -1.593605   2.198513   3.268995 C.3        1 UNL1     -0.0567
     58 C         1.849661   7.196472   -1.17687 C.3        1 UNL1     0.0210
     59 C         -1.158676   5.565019   2.945998 C.3        1 UNL1     0.0372
     60 C         0.644739   5.211352   0.592217 C.2        1 UNL1     -0.0208
     61 C         1.555483   5.645975   1.464222 C.2        1 UNL1     0.0882
     62 H         4.690588   2.731184   0.592202 H        1 UNL1     0.0365
     63 H         6.339482   3.606669   -0.235386 H        1 UNL1     0.0576
     64 H         8.347212   1.487513   -1.222793 H        1 UNL1     0.0615
     65 H         8.281487   4.604987   -1.409582 H        1 UNL1     0.0622
     66 H         -1.428646   5.329525   0.507082 H        1 UNL1     0.0645
     67 H         -1.852194   3.632344   -0.693081 H        1 UNL1     0.0362
     68 H         -2.539354   2.49843   1.05564 H        1 UNL1     0.0741
     69 H         -1.201804   0.518662   2.203623 H        1 UNL1     0.0359
     70 H         0.900798   0.722926   2.936324 H        1 UNL1     0.0600
     71 H         1.795955   -0.406469   1.315252 H        1 UNL1     0.0348
     72 H         3.35474   1.464946   1.308818 H        1 UNL1     0.0602
     73 H         0.765481   5.408915   -0.443948 H        1 UNL1     0.0628
     74 H         1.534997   5.434953   2.533936 H        1 UNL1     0.1022
     75 H         10.965859   2.251334   -3.401201 H        1 UNL1     0.0279
     76 H         10.811451   3.439875   -4.632797 H        1 UNL1     0.0279
     77 H         11.926462   3.660932   -3.224542 H        1 UNL1     0.0279
     78 H         9.081434   4.803527   -4.994748 H        1 UNL1     0.1553
     79 H         7.801382   3.33207   -4.644742 H        1 UNL1     0.1484
     80 H         4.052321   2.730361   -4.793014 H        1 UNL1     0.0317
     81 H         4.788757   4.257956   -5.255661 H        1 UNL1     0.0317
     82 H         6.703485   3.068166   -6.356533 H        1 UNL1     0.0428
     83 H         5.149239   2.592755   -7.004612 H        1 UNL1     0.0428
     84 H         6.919712   -0.045431   -4.174677 H        1 UNL1     0.0428
     85 H         7.831068   1.365383   -4.584746 H        1 UNL1     0.0428
     86 H         6.532942   1.437196   -2.455294 H        1 UNL1     0.0317
     87 H         5.039101   1.210697   -3.242369 H        1 UNL1     0.0317
     88 H         7.285501   0.881183   -7.358893 H        1 UNL1     0.0429
     89 H         6.919177   -0.606559   -6.482157 H        1 UNL1     0.0429
     90 H         4.380723   0.1976   -7.28985 H        1 UNL1     0.0308
     91 H         6.314358   1.04929   -9.523957 H        1 UNL1     0.0233
     92 H         4.545524   0.90075   -9.680977 H        1 UNL1     0.0233
     93 H         5.239096   2.130139   -8.645524 H        1 UNL1     0.0233
     94 H         4.681142   -1.472854   -9.153958 H        1 UNL1     0.0233
     95 H         6.380467   -1.58829   -8.670946 H        1 UNL1     0.0233
     96 H         5.098497   -2.047804   -7.526659 H        1 UNL1     0.0233
     97 H         4.14709   10.520279   -0.076549 H        1 UNL1     0.0280
     98 H         5.754111   11.139646   -0.343112 H        1 UNL1     0.0280
     99 H         4.57127   11.134987   -1.684975 H        1 UNL1     0.0280
     100 H         6.699477   10.720027   -2.99188 H        1 UNL1     0.2922
     101 H         4.694448   0.88325   2.447667 H        1 UNL1     0.0236
     102 H         6.008258   2.121765   2.525423 H        1 UNL1     0.0236
     103 H         6.314736   0.51384   1.945642 H        1 UNL1     0.0236
     104 H         4.328102   -0.560667   1.286389 H        1 UNL1     0.2098
     105 H         0.712127   1.282076   -0.927332 H        1 UNL1     0.0234
     106 H         1.293813   -0.404947   -1.009142 H        1 UNL1     0.0234
     107 H         0.0   -0.0   0.0 H        1 UNL1     0.0234
     108 H         1.192294   3.2604   1.75738 H        1 UNL1     0.2098
     109 H         1.082876   3.048106   -0.846443 H        1 UNL1     0.0234
     110 H         -0.1718   2.335258   -1.909664 H        1 UNL1     0.0234
     111 H         0.082337   4.045076   -1.881783 H        1 UNL1     0.0234
     112 H         -3.574309   -1.529265   1.437538 H        1 UNL1     0.0342
     113 H         -3.201501   0.095252   2.115918 H        1 UNL1     0.0342
     114 H         -4.406773   -0.083914   0.837956 H        1 UNL1     0.0342
     115 H         -2.657992   1.930428   3.317972 H        1 UNL1     0.0234
     116 H         -1.14472   1.9375   4.229424 H        1 UNL1     0.0234
     117 H         -1.653541   3.298848   3.208895 H        1 UNL1     0.0234
     118 H         0.94765   7.683545   -0.766818 H        1 UNL1     0.0309
     119 H         2.221491   7.784611   -2.021878 H        1 UNL1     0.0309
     120 H         1.461916   6.264784   -1.603154 H        1 UNL1     0.0309
     121 H         -0.355325   6.288522   2.809883 H        1 UNL1     0.0524
     122 H         -2.089359   6.029558   2.579843 H        1 UNL1     0.0524
     123 H         -1.274228   5.327014   3.999608 H        1 UNL1     0.0524
@<TRIPOS>BOND
     1     1     2    1
     2     1    42    1
     3     2     3    2
     4     3     4    1
     5     4     5    2
     6     5     7    1
     7     6    75    1
     8     6    76    1
     9     6    77    1
    10     7     9   am
    11     9    10    1
    12    10    11    2
    13    10    43    1
    14    11    14    1
    15    11    15    1
    16    12    13   ar
    17    12    27   ar
    18    12    43    1
    19    13    14    1
    20    13    30   ar
    21    14    17    2
    22    15    16    1
    23    16    17    1
    24    16    18    1
    25    16    22    1
    26    18    19    1
    27    19    20    1
    28    20    21    1
    29    21    22    1
    30    23    24    1
    31    23    88    1
    32    23    89    1
    33    24    25    1
    34    24    26    1
    35    24    90    1
    36    25    91    1
    37    25    92    1
    38    25    93    1
    39    26    94    1
    40    26    95    1
    41    26    96    1
    42    27    28   ar
    43    28    29   ar
    44    29    30   ar
    45    29    31    1
    46    30    33    1
    47    31    32    1
    48    32    33    1
    49    32    35    1
    50    34    97    1
    51    34    98    1
    52    34    99    1
    53    35    61    1
    54    36    37    1
    55    36    60    1
    56    37    38    1
    57    38    39    1
    58    39    40    1
    59    40    41    1
    60    41    42    1
    61    45   100    1
    62    47   101    1
    63    47   102    1
    64    47   103    1
    65    48   104    1
    66    49   105    1
    67    49   106    1
    68    49   107    1
    69    50   108    1
    70    51    59    1
    71    52   109    1
    72    52   110    1
    73    52   111    1
    74    53    54    1
    75    54    55    2
    76    54    56    1
    77    56   112    1
    78    56   113    1
    79    56   114    1
    80    57   115    1
    81    57   116    1
    82    57   117    1
    83    58   118    1
    84    58   119    1
    85    58   120    1
    86    59   121    1
    87    59   122    1
    88    59   123    1
    89    60    61    2
    90     1    47    1
    91     1    62    1
    92     2    63    1
    93     3    64    1
    94     4    65    1
    95     5     6    1
    96     7     8    2
    97     9    78    1
    98    15    79    1
    99    18    80    1
   100    18    81    1
   101    19    82    1
   102    19    83    1
   103    20    23    1
   104    21    84    1
   105    21    85    1
   106    22    86    1
   107    22    87    1
   108    27    45    1
   109    28    34    1
   110    32    58    1
   111    33    46    2
   112    36    51    1
   113    36    66    1
   114    37    52    1
   115    37    67    1
   116    38    53    1
   117    38    68    1
   118    42    48    1
   119    42    72    1
   120    43    44    2
   121    60    73    1
   122    61    74    1
   123    39    69    1
   124    39    57    1
   125    40    70    1
   126    40    50    1
   127    41    71    1
   128    41    49    1
