@<TRIPOS>MOLECULE
*****
 123 128 0 0 0
SMALL
GASTEIGER

@<TRIPOS>ATOM
     1 C         0.284787   0.015593   4.117407 C.3        1 UNL1     0.0009
     2 C         -0.900716   -0.725672   5.334842 C.2        1 UNL1     -0.0787
     3 C         -2.015676   -0.584894   6.247581 C.2        1 UNL1     -0.0649
     4 C         -2.825187   -1.805037   7.097463 C.2        1 UNL1     -0.0542
     5 C         -4.018706   -2.14992   7.778379 C.2        1 UNL1     0.0115
     6 C         -5.346759   -1.583609   8.351867 C.3        1 UNL1     -0.0348
     7 C         -4.348337   -3.700476   8.031577 C.2        1 UNL1     0.2441
     8 O         -4.181853   -4.248247   9.112667 O.2        1 UNL1     -0.2702
     9 N         -5.083774   -4.321224   7.006903 N.am        1 UNL1     -0.2772
     10 C         -4.237492   -4.82624   6.04665 C.2        1 UNL1     0.1049
     11 C         -3.814687   -3.96959   5.134724 C.2        1 UNL1     0.0801
     12 C         -2.179966   -6.217468   5.749319 C.ar        1 UNL1     0.0753
     13 C         -1.676766   -5.157654   4.929444 C.ar        1 UNL1     0.0305
     14 C         -2.532715   -4.058107   4.489673 C.2        1 UNL1     0.0924
     15 N         -4.236206   -2.723503   4.858832 N.pl3        1 UNL1     -0.3170
     16 C         -3.565148   -2.287276   3.663156 C.3        1 UNL1     0.1275
     17 N         -2.266246   -3.055742   3.657095 N.2        1 UNL1     -0.2557
     18 C         -4.370844   -2.808069   2.476846 C.3        1 UNL1     0.0016
     19 C         -5.803273   -2.315601   2.608047 C.3        1 UNL1     0.0026
     20 N         -5.796428   -0.859551   2.638038 N.3        1 UNL1     -0.3018
     21 C         -4.995792   -0.263525   3.709534 C.3        1 UNL1     0.0026
     22 C         -3.559941   -0.768072   3.555724 C.3        1 UNL1     0.0016
     23 C         -7.115374   -0.285626   2.460172 C.3        1 UNL1     0.0012
     24 C         -7.602526   -0.49212   1.017328 C.3        1 UNL1     -0.0339
     25 C         -8.563776   -1.687686   0.914 C.3        1 UNL1     -0.0615
     26 C         -8.239393   0.783965   0.495035 C.3        1 UNL1     -0.0615
     27 C         -1.392583   -7.322455   6.064199 C.ar        1 UNL1     0.1347
     28 C         -0.105895   -7.49732   5.586803 C.ar        1 UNL1     0.0342
     29 C         0.385715   -6.418301   4.821819 C.ar        1 UNL1     0.1435
     30 C         -0.378887   -5.288495   4.528315 C.ar        1 UNL1     0.0774
     31 O         1.580512   -6.485451   4.194956 O.3        1 UNL1     -0.4436
     32 C         1.516826   -5.469054   3.183149 C.3        1 UNL1     0.3143
     33 C         0.471657   -4.487314   3.673067 C.2        1 UNL1     0.2504
     34 C         0.702332   -8.761994   5.673233 C.3        1 UNL1     -0.0327
     35 O         2.77312   -4.779923   3.191952 O.2        1 UNL1     -0.4528
     36 C         3.330802   -3.587278   -0.368199 C.3        1 UNL1     0.0854
     37 C         2.417313   -2.665854   -1.26488 C.3        1 UNL1     0.0236
     38 C         3.144802   -1.366114   -1.859169 C.3        1 UNL1     0.1131
     39 C         3.952059   -0.407763   -0.89368 C.3        1 UNL1     0.0200
     40 C         3.323048   0.021488   0.590412 C.3        1 UNL1     0.0661
     41 C         1.760606   0.618959   0.872213 C.3        1 UNL1     0.0091
     42 C         0.653263   0.418522   2.321013 C.3        1 UNL1     0.0661
     43 C         -3.598319   -6.143868   6.17957 C.2        1 UNL1     0.2131
     44 O         -4.248297   -7.114135   6.524316 O.2        1 UNL1     -0.2851
     45 O         -1.942365   -8.287691   6.905327 O.3        1 UNL1     -0.5056
     46 O         0.375675   -3.305127   3.430012 O.2        1 UNL1     -0.2836
     47 C         1.360691   0.856464   4.855882 C.3        1 UNL1     -0.0566
     48 O         0.310013   1.858936   2.40166 O.3        1 UNL1     -0.3909
     49 C         0.91871   0.385133   -0.362303 C.3        1 UNL1     -0.0577
     50 O         3.658132   -0.937552   1.573104 O.3        1 UNL1     -0.3910
     51 O         4.606688   -3.07446   -0.057452 O.3        1 UNL1     -0.3753
     52 C         0.942089   -2.629322   -0.747843 C.3        1 UNL1     -0.0564
     53 O         2.382165   -0.706518   -2.970765 O.3        1 UNL1     -0.4608
     54 C         2.554258   0.584757   -3.396116 C.2        1 UNL1     0.3042
     55 O         1.765559   1.521607   -3.277357 O.2        1 UNL1     -0.2512
     56 C         3.896926   0.838443   -4.020294 C.3        1 UNL1     0.0332
     57 C         5.488991   -0.846499   -0.953062 C.3        1 UNL1     -0.0567
     58 C         0.991808   -6.158955   1.902555 C.3        1 UNL1     0.0210
     59 C         5.602243   -4.062422   0.204591 C.3        1 UNL1     0.0372
     60 C         2.717791   -4.020818   0.916878 C.2        1 UNL1     -0.0208
     61 C         3.228579   -4.060755   2.148237 C.2        1 UNL1     0.0882
     62 H         0.717882   -0.979906   3.962094 H        1 UNL1     0.0365
     63 H         -0.520149   -1.747546   5.393261 H        1 UNL1     0.0576
     64 H         -2.559945   0.357077   6.3454 H        1 UNL1     0.0615
     65 H         -2.164499   -2.67105   7.002612 H        1 UNL1     0.0622
     66 H         3.4663   -4.502625   -0.961349 H        1 UNL1     0.0645
     67 H         2.250997   -3.261616   -2.179192 H        1 UNL1     0.0362
     68 H         3.904658   -1.852695   -2.489549 H        1 UNL1     0.0741
     69 H         4.082075   0.548925   -1.381789 H        1 UNL1     0.0359
     70 H         3.96412   0.892886   0.824404 H        1 UNL1     0.0600
     71 H         1.953916   1.707258   0.800143 H        1 UNL1     0.0348
     72 H         1.666344   0.184273   2.678936 H        1 UNL1     0.0602
     73 H         1.767167   -4.451836   0.722493 H        1 UNL1     0.0628
     74 H         4.168311   -3.591589   2.441536 H        1 UNL1     0.1022
     75 H         -5.42973   -0.489998   8.141711 H        1 UNL1     0.0279
     76 H         -6.266425   -1.975035   7.922833 H        1 UNL1     0.0279
     77 H         -5.374653   -1.595823   9.451309 H        1 UNL1     0.0279
     78 H         -5.685957   -3.636272   6.554915 H        1 UNL1     0.1553
     79 H         -5.126484   -2.360324   5.145954 H        1 UNL1     0.1484
     80 H         -3.908889   -2.453349   1.547579 H        1 UNL1     0.0317
     81 H         -4.349518   -3.902513   2.439596 H        1 UNL1     0.0317
     82 H         -6.295221   -2.727598   3.501443 H        1 UNL1     0.0428
     83 H         -6.360487   -2.699845   1.753109 H        1 UNL1     0.0428
     84 H         -4.942585   0.828582   3.661745 H        1 UNL1     0.0428
     85 H         -5.423737   -0.466663   4.700955 H        1 UNL1     0.0428
     86 H         -2.979738   -0.212082   4.268624 H        1 UNL1     0.0317
     87 H         -3.151238   -0.446602   2.589952 H        1 UNL1     0.0317
     88 H         -7.806645   -0.801195   3.139603 H        1 UNL1     0.0429
     89 H         -7.128032   0.777188   2.734108 H        1 UNL1     0.0429
     90 H         -6.738119   -0.682114   0.370091 H        1 UNL1     0.0308
     91 H         -9.424892   -1.564183   1.577573 H        1 UNL1     0.0233
     92 H         -8.916859   -1.811884   -0.11241 H        1 UNL1     0.0233
     93 H         -8.083569   -2.634618   1.188874 H        1 UNL1     0.0233
     94 H         -8.755332   0.588693   -0.45128 H        1 UNL1     0.0233
     95 H         -8.978152   1.15334   1.211806 H        1 UNL1     0.0233
     96 H         -7.491007   1.563309   0.32619 H        1 UNL1     0.0233
     97 H         1.6666   -8.663566   5.183612 H        1 UNL1     0.0280
     98 H         0.919963   -9.043875   6.711711 H        1 UNL1     0.0280
     99 H         0.151778   -9.585576   5.18981 H        1 UNL1     0.0280
     100 H         -1.924553   -9.163249   6.560793 H        1 UNL1     0.2922
     101 H         2.083438   1.241823   4.136999 H        1 UNL1     0.0236
     102 H         1.842159   0.316413   5.670448 H        1 UNL1     0.0236
     103 H         0.930943   1.754828   5.329647 H        1 UNL1     0.0236
     104 H         0.921766   2.272542   3.041706 H        1 UNL1     0.2098
     105 H         0.700482   1.283727   -0.933895 H        1 UNL1     0.0234
     106 H         1.28532   -0.401934   -1.021129 H        1 UNL1     0.0234
     107 H         0.0   -0.0   0.0 H        1 UNL1     0.0234
     108 H         3.2059   -1.769167   1.332959 H        1 UNL1     0.2098
     109 H         0.872632   -2.263581   0.28614 H        1 UNL1     0.0234
     110 H         0.275547   -2.04298   -1.389457 H        1 UNL1     0.0234
     111 H         0.491104   -3.630569   -0.739888 H        1 UNL1     0.0234
     112 H         3.976704   1.888486   -4.3176 H        1 UNL1     0.0342
     113 H         4.715479   0.556079   -3.359926 H        1 UNL1     0.0342
     114 H         3.974744   0.224531   -4.92816 H        1 UNL1     0.0342
     115 H         5.889914   -0.792611   -1.974602 H        1 UNL1     0.0234
     116 H         6.144719   -0.254687   -0.311323 H        1 UNL1     0.0234
     117 H         5.65178   -1.912018   -0.716185 H        1 UNL1     0.0234
     118 H         1.79772   -6.66875   1.346119 H        1 UNL1     0.0309
     119 H         0.185278   -6.872531   2.098823 H        1 UNL1     0.0309
     120 H         0.594031   -5.444795   1.173271 H        1 UNL1     0.0309
     121 H         5.301664   -4.603614   1.101318 H        1 UNL1     0.0524
     122 H         5.688148   -4.797019   -0.613348 H        1 UNL1     0.0524
     123 H         6.568728   -3.590687   0.357776 H        1 UNL1     0.0524
@<TRIPOS>BOND
     1     1     2    1
     2     1    42    1
     3     2     3    2
     4     3     4    1
     5     4     5    2
     6     5     7    1
     7     6    75    1
     8     6    76    1
     9     6    77    1
    10     7     9   am
    11     9    10    1
    12    10    11    2
    13    10    43    1
    14    11    14    1
    15    11    15    1
    16    12    13   ar
    17    12    27   ar
    18    12    43    1
    19    13    14    1
    20    13    30   ar
    21    14    17    2
    22    15    16    1
    23    16    17    1
    24    16    18    1
    25    16    22    1
    26    18    19    1
    27    19    20    1
    28    20    21    1
    29    21    22    1
    30    23    24    1
    31    23    88    1
    32    23    89    1
    33    24    25    1
    34    24    26    1
    35    24    90    1
    36    25    91    1
    37    25    92    1
    38    25    93    1
    39    26    94    1
    40    26    95    1
    41    26    96    1
    42    27    28   ar
    43    28    29   ar
    44    29    30   ar
    45    29    31    1
    46    30    33    1
    47    31    32    1
    48    32    33    1
    49    32    35    1
    50    34    97    1
    51    34    98    1
    52    34    99    1
    53    35    61    1
    54    36    37    1
    55    36    60    1
    56    37    38    1
    57    38    39    1
    58    39    40    1
    59    40    41    1
    60    41    42    1
    61    45   100    1
    62    47   101    1
    63    47   102    1
    64    47   103    1
    65    48   104    1
    66    49   105    1
    67    49   106    1
    68    49   107    1
    69    50   108    1
    70    51    59    1
    71    52   109    1
    72    52   110    1
    73    52   111    1
    74    53    54    1
    75    54    55    2
    76    54    56    1
    77    56   112    1
    78    56   113    1
    79    56   114    1
    80    57   115    1
    81    57   116    1
    82    57   117    1
    83    58   118    1
    84    58   119    1
    85    58   120    1
    86    59   121    1
    87    59   122    1
    88    59   123    1
    89    60    61    2
    90     1    47    1
    91     1    62    1
    92     2    63    1
    93     3    64    1
    94     4    65    1
    95     5     6    1
    96     7     8    2
    97     9    78    1
    98    15    79    1
    99    18    80    1
   100    18    81    1
   101    19    82    1
   102    19    83    1
   103    20    23    1
   104    21    84    1
   105    21    85    1
   106    22    86    1
   107    22    87    1
   108    27    45    1
   109    28    34    1
   110    32    58    1
   111    33    46    2
   112    36    51    1
   113    36    66    1
   114    37    52    1
   115    37    67    1
   116    38    53    1
   117    38    68    1
   118    42    48    1
   119    42    72    1
   120    43    44    2
   121    60    73    1
   122    61    74    1
   123    39    69    1
   124    39    57    1
   125    40    70    1
   126    40    50    1
   127    41    71    1
   128    41    49    1
