@<TRIPOS>MOLECULE
*****
 123 128 0 0 0
SMALL
GASTEIGER

@<TRIPOS>ATOM
     1 C         -2.061551   4.151285   2.840877 C.3        1 UNL1     0.0009
     2 C         -3.021354   5.731752   2.706933 C.2        1 UNL1     -0.0787
     3 C         -3.07388   7.177639   2.758873 C.2        1 UNL1     -0.0649
     4 C         -4.38331   8.185275   2.389525 C.2        1 UNL1     -0.0542
     5 C         -4.772269   9.500506   2.034621 C.2        1 UNL1     0.0115
     6 C         -4.272191   10.964868   1.897178 C.3        1 UNL1     -0.0348
     7 C         -6.223534   9.734015   1.389412 C.2        1 UNL1     0.2441
     8 O         -7.170482   10.177549   2.024307 O.2        1 UNL1     -0.2702
     9 N         -6.266356   9.642662   -0.01272 N.am        1 UNL1     -0.2772
     10 C         -6.482222   8.340896   -0.402755 C.2        1 UNL1     0.1049
     11 C         -5.41596   7.563034   -0.450052 C.2        1 UNL1     0.0801
     12 C         -7.954396   6.362571   0.01709 C.ar        1 UNL1     0.0753
     13 C         -6.753054   5.598531   0.164151 C.ar        1 UNL1     0.0305
     14 C         -5.447792   6.148341   -0.195086 C.2        1 UNL1     0.0924
     15 N         -4.111633   7.880166   -0.381598 N.pl3        1 UNL1     -0.3170
     16 C         -3.354526   6.687731   -0.655722 C.3        1 UNL1     0.1275
     17 N         -4.255699   5.559007   -0.21801 N.2        1 UNL1     -0.2557
     18 C         -3.232165   6.568347   -2.171795 C.3        1 UNL1     0.0016
     19 C         -2.608778   7.845733   -2.711482 C.3        1 UNL1     0.0026
     20 N         -1.302681   8.026386   -2.093015 N.3        1 UNL1     -0.3018
     21 C         -1.311036   8.09057   -0.63008 C.3        1 UNL1     0.0026
     22 C         -1.937042   6.795678   -0.109247 C.3        1 UNL1     0.0016
     23 C         -0.502368   9.039774   -2.751185 C.3        1 UNL1     0.0012
     24 C         -1.333065   9.775715   -3.814242 C.3        1 UNL1     -0.0339
     25 C         -2.048333   8.788813   -4.75151 C.3        1 UNL1     -0.0615
     26 C         -2.314379   10.72225   -3.145007 C.3        1 UNL1     -0.0615
     27 C         -9.204635   5.792935   0.246297 C.ar        1 UNL1     0.1347
     28 C         -9.381218   4.463699   0.586884 C.ar        1 UNL1     0.0342
     29 C         -8.182163   3.743605   0.773689 C.ar        1 UNL1     0.1435
     30 C         -6.921469   4.310585   0.582895 C.ar        1 UNL1     0.0774
     31 O         -8.187855   2.411693   0.999491 O.3        1 UNL1     -0.4436
     32 C         -6.860003   1.98133   0.664124 C.3        1 UNL1     0.3143
     33 C         -5.996   3.218591   0.801583 C.2        1 UNL1     0.2504
     34 C         -10.689805   3.72379   0.602252 C.3        1 UNL1     -0.0327
     35 O         -6.439844   1.063941   1.68153 O.2        1 UNL1     -0.4528
     36 C         -4.051736   -1.34967   -0.015381 C.3        1 UNL1     0.0854
     37 C         -2.719368   -1.044911   -0.802427 C.3        1 UNL1     0.0236
     38 C         -1.425017   -1.826666   -0.268333 C.3        1 UNL1     0.1131
     39 C         -1.064628   -1.788593   1.271453 C.3        1 UNL1     0.0200
     40 C         -1.157619   -0.358967   2.12583 C.3        1 UNL1     0.0661
     41 C         -0.477439   1.1234   1.659404 C.3        1 UNL1     0.0091
     42 C         -1.050593   2.84095   1.954229 C.3        1 UNL1     0.0661
     43 C         -7.83002   7.757246   -0.474512 C.2        1 UNL1     0.2131
     44 O         -8.740389   8.367602   -1.005011 O.2        1 UNL1     -0.2851
     45 O         -10.321204   6.617652   0.125663 O.3        1 UNL1     -0.5056
     46 O         -4.81443   3.288047   1.05638 O.2        1 UNL1     -0.2836
     47 C         -1.761415   3.827116   4.329102 C.3        1 UNL1     -0.0566
     48 O         0.277376   3.329077   2.398464 O.3        1 UNL1     -0.3909
     49 C         -0.070436   1.037554   0.205281 C.3        1 UNL1     -0.0577
     50 O         -2.465433   -0.155724   2.621851 O.3        1 UNL1     -0.3910
     51 O         -3.912884   -2.124413   1.154202 O.3        1 UNL1     -0.3753
     52 C         -2.653537   0.442203   -1.281081 C.3        1 UNL1     -0.0564
     53 O         -0.269596   -1.799703   -1.225726 O.3        1 UNL1     -0.4608
     54 C         -0.288224   -1.245736   -2.479004 C.2        1 UNL1     0.3042
     55 O         -1.230117   -1.219843   -3.270208 O.2        1 UNL1     -0.2512
     56 C         0.994914   -0.559524   -2.852344 C.3        1 UNL1     0.0332
     57 C         -1.684209   -3.100644   1.94437 C.3        1 UNL1     -0.0567
     58 C         -6.898662   1.562674   -0.824084 C.3        1 UNL1     0.0210
     59 C         -3.895445   -3.535006   0.940218 C.3        1 UNL1     0.0372
     60 C         -4.850754   -0.150335   0.356543 C.2        1 UNL1     -0.0208
     61 C         -5.451627   0.166148   1.504382 C.2        1 UNL1     0.0882
     62 H         -2.97155   3.598744   2.577606 H        1 UNL1     0.0365
     63 H         -4.030712   5.344537   2.55289 H        1 UNL1     0.0576
     64 H         -2.172056   7.778667   2.895207 H        1 UNL1     0.0615
     65 H         -5.236084   7.501907   2.353917 H        1 UNL1     0.0622
     66 H         -4.669817   -1.914591   -0.72734 H        1 UNL1     0.0645
     67 H         -2.873747   -1.522124   -1.785786 H        1 UNL1     0.0362
     68 H         -1.739808   -2.862158   -0.468796 H        1 UNL1     0.0741
     69 H         -0.02727   -2.070519   1.393169 H        1 UNL1     0.0359
     70 H         -0.562454   -0.631203   3.018425 H        1 UNL1     0.0600
     71 H         0.505797   1.052374   2.164537 H        1 UNL1     0.0348
     72 H         -1.56501   2.217404   2.699804 H        1 UNL1     0.0602
     73 H         -5.013106   0.443223   -0.508661 H        1 UNL1     0.0628
     74 H         -5.291788   -0.355781   2.448458 H        1 UNL1     0.1022
     75 H         -3.701343   11.271171   2.806762 H        1 UNL1     0.0279
     76 H         -3.561819   11.161872   1.09741 H        1 UNL1     0.0279
     77 H         -5.093267   11.696666   1.899881 H        1 UNL1     0.0279
     78 H         -5.372387   9.934845   -0.401984 H        1 UNL1     0.1553
     79 H         -3.75312   8.802329   -0.548978 H        1 UNL1     0.1484
     80 H         -2.620023   5.69095   -2.413088 H        1 UNL1     0.0317
     81 H         -4.212355   6.402737   -2.631635 H        1 UNL1     0.0317
     82 H         -3.253942   8.71921   -2.536229 H        1 UNL1     0.0428
     83 H         -2.532423   7.739974   -3.794088 H        1 UNL1     0.0428
     84 H         -0.311503   8.146127   -0.187747 H        1 UNL1     0.0428
     85 H         -1.815687   8.995138   -0.263471 H        1 UNL1     0.0428
     86 H         -1.805765   6.81891   0.956686 H        1 UNL1     0.0317
     87 H         -1.332191   5.935322   -0.420757 H        1 UNL1     0.0317
     88 H         -0.181267   9.766646   -1.993658 H        1 UNL1     0.0429
     89 H         0.407089   8.607899   -3.188388 H        1 UNL1     0.0429
     90 H         -0.668677   10.408416   -4.414651 H        1 UNL1     0.0308
     91 H         -2.021229   9.134925   -5.789091 H        1 UNL1     0.0233
     92 H         -1.590735   7.798542   -4.691708 H        1 UNL1     0.0233
     93 H         -3.104527   8.65399   -4.488618 H        1 UNL1     0.0233
     94 H         -3.342013   10.448324   -3.407244 H        1 UNL1     0.0233
     95 H         -2.21488   10.656342   -2.057938 H        1 UNL1     0.0233
     96 H         -2.143412   11.757567   -3.452997 H        1 UNL1     0.0233
     97 H         -11.411816   4.186686   1.268329 H        1 UNL1     0.0280
     98 H         -11.164622   3.702156   -0.387362 H        1 UNL1     0.0280
     99 H         -10.523821   2.687397   0.939049 H        1 UNL1     0.0280
     100 H         -10.268931   7.247968   -0.571181 H        1 UNL1     0.2922
     101 H         -2.421662   3.030931   4.672351 H        1 UNL1     0.0236
     102 H         -1.805914   4.702683   4.975929 H        1 UNL1     0.0236
     103 H         -0.743559   3.4262   4.468492 H        1 UNL1     0.0236
     104 H         0.646804   2.662962   3.01066 H        1 UNL1     0.2098
     105 H         -0.789557   1.465895   -0.488405 H        1 UNL1     0.0234
     106 H         0.930713   1.410664   -0.010161 H        1 UNL1     0.0234
     107 H         0.0   0.0   0.0 H        1 UNL1     0.0234
     108 H         -3.061308   -0.090859   1.850816 H        1 UNL1     0.2098
     109 H         -1.622561   0.773943   -1.467493 H        1 UNL1     0.0234
     110 H         -3.266933   0.636595   -2.167478 H        1 UNL1     0.0234
     111 H         -3.054532   1.129189   -0.523981 H        1 UNL1     0.0234
     112 H         0.782238   0.439965   -3.243672 H        1 UNL1     0.0342
     113 H         1.691955   -0.511908   -2.017053 H        1 UNL1     0.0342
     114 H         1.473951   -1.139762   -3.652976 H        1 UNL1     0.0342
     115 H         -1.147398   -3.381971   2.860817 H        1 UNL1     0.0234
     116 H         -2.742505   -3.0121   2.197784 H        1 UNL1     0.0234
     117 H         -1.555205   -4.010929   1.333893 H        1 UNL1     0.0234
     118 H         -5.887324   1.394548   -1.233883 H        1 UNL1     0.0309
     119 H         -7.510593   0.673163   -1.004398 H        1 UNL1     0.0309
     120 H         -7.306096   2.34726   -1.471022 H        1 UNL1     0.0309
     121 H         -4.888754   -3.916421   1.175199 H        1 UNL1     0.0524
     122 H         -3.679144   -3.796347   -0.109045 H        1 UNL1     0.0524
     123 H         -3.153063   -4.003119   1.580401 H        1 UNL1     0.0524
@<TRIPOS>BOND
     1     1     2    1
     2     1    42    1
     3     2     3    2
     4     3     4    1
     5     4     5    2
     6     5     7    1
     7     6    75    1
     8     6    76    1
     9     6    77    1
    10     7     9   am
    11     9    10    1
    12    10    11    2
    13    10    43    1
    14    11    14    1
    15    11    15    1
    16    12    13   ar
    17    12    27   ar
    18    12    43    1
    19    13    14    1
    20    13    30   ar
    21    14    17    2
    22    15    16    1
    23    16    17    1
    24    16    18    1
    25    16    22    1
    26    18    19    1
    27    19    20    1
    28    20    21    1
    29    21    22    1
    30    23    24    1
    31    23    88    1
    32    23    89    1
    33    24    25    1
    34    24    26    1
    35    24    90    1
    36    25    91    1
    37    25    92    1
    38    25    93    1
    39    26    94    1
    40    26    95    1
    41    26    96    1
    42    27    28   ar
    43    28    29   ar
    44    29    30   ar
    45    29    31    1
    46    30    33    1
    47    31    32    1
    48    32    33    1
    49    32    35    1
    50    34    97    1
    51    34    98    1
    52    34    99    1
    53    35    61    1
    54    36    37    1
    55    36    60    1
    56    37    38    1
    57    38    39    1
    58    39    40    1
    59    40    41    1
    60    41    42    1
    61    45   100    1
    62    47   101    1
    63    47   102    1
    64    47   103    1
    65    48   104    1
    66    49   105    1
    67    49   106    1
    68    49   107    1
    69    50   108    1
    70    51    59    1
    71    52   109    1
    72    52   110    1
    73    52   111    1
    74    53    54    1
    75    54    55    2
    76    54    56    1
    77    56   112    1
    78    56   113    1
    79    56   114    1
    80    57   115    1
    81    57   116    1
    82    57   117    1
    83    58   118    1
    84    58   119    1
    85    58   120    1
    86    59   121    1
    87    59   122    1
    88    59   123    1
    89    60    61    2
    90     1    47    1
    91     1    62    1
    92     2    63    1
    93     3    64    1
    94     4    65    1
    95     5     6    1
    96     7     8    2
    97     9    78    1
    98    15    79    1
    99    18    80    1
   100    18    81    1
   101    19    82    1
   102    19    83    1
   103    20    23    1
   104    21    84    1
   105    21    85    1
   106    22    86    1
   107    22    87    1
   108    27    45    1
   109    28    34    1
   110    32    58    1
   111    33    46    2
   112    36    51    1
   113    36    66    1
   114    37    52    1
   115    37    67    1
   116    38    53    1
   117    38    68    1
   118    42    48    1
   119    42    72    1
   120    43    44    2
   121    60    73    1
   122    61    74    1
   123    39    69    1
   124    39    57    1
   125    40    70    1
   126    40    50    1
   127    41    71    1
   128    41    49    1
