@<TRIPOS>MOLECULE
*****
 123 128 0 0 0
SMALL
GASTEIGER

@<TRIPOS>ATOM
     1 C         1.345519   2.286581   -3.5057 C.3        1 UNL1     0.0009
     2 C         3.042462   2.390246   -4.245074 C.2        1 UNL1     -0.0787
     3 C         4.249952   3.140941   -4.517969 C.2        1 UNL1     -0.0649
     4 C         5.682827   2.584914   -5.227943 C.2        1 UNL1     -0.0542
     5 C         7.067657   2.832379   -5.395529 C.2        1 UNL1     0.0115
     6 C         8.193226   3.879355   -5.171348 C.3        1 UNL1     -0.0348
     7 C         8.017543   1.633778   -5.883444 C.2        1 UNL1     0.2441
     8 O         8.421271   1.530728   -7.033622 O.2        1 UNL1     -0.2702
     9 N         8.566151   0.857993   -4.847423 N.am        1 UNL1     -0.2772
     10 C         7.714392   -0.170178   -4.514719 C.2        1 UNL1     0.1049
     11 C         6.735136   0.131728   -3.681572 C.2        1 UNL1     0.0801
     12 C         6.351129   -2.017031   -5.508691 C.ar        1 UNL1     0.0753
     13 C         5.254736   -1.517973   -4.735727 C.ar        1 UNL1     0.0305
     14 C         5.447488   -0.507865   -3.697661 C.2        1 UNL1     0.0924
     15 N         6.546522   1.23169   -2.932548 N.pl3        1 UNL1     -0.3170
     16 C         5.419048   0.989367   -2.072121 C.3        1 UNL1     0.1275
     17 N         4.574788   -0.007869   -2.827416 N.2        1 UNL1     -0.2557
     18 C         5.940014   0.255936   -0.839898 C.3        1 UNL1     0.0016
     19 C         7.043929   1.089188   -0.208508 C.3        1 UNL1     0.0026
     20 N         6.500444   2.392414   0.14822 N.3        1 UNL1     -0.3018
     21 C         5.919202   3.148904   -0.962748 C.3        1 UNL1     0.0026
     22 C         4.809674   2.295244   -1.579276 C.3        1 UNL1     0.0016
     23 C         7.376908   3.149654   1.019451 C.3        1 UNL1     0.0012
     24 C         8.345691   2.211449   1.756328 C.3        1 UNL1     -0.0339
     25 C         9.71176   2.879448   1.983685 C.3        1 UNL1     -0.0615
     26 C         7.726907   1.745555   3.062784 C.3        1 UNL1     -0.0615
     27 C         6.180513   -3.0644   -6.410926 C.ar        1 UNL1     0.1347
     28 C         4.974376   -3.716142   -6.596705 C.ar        1 UNL1     0.0342
     29 C         3.89827   -3.175739   -5.861094 C.ar        1 UNL1     0.1435
     30 C         4.046504   -2.103435   -4.98052 C.ar        1 UNL1     0.0774
     31 O         2.684272   -3.768267   -5.849849 O.3        1 UNL1     -0.4436
     32 C         2.036943   -3.246612   -4.679501 C.3        1 UNL1     0.3143
     33 C         2.733602   -1.93146   -4.394449 C.2        1 UNL1     0.2504
     34 C         4.773145   -4.999827   -7.352853 C.3        1 UNL1     -0.0327
     35 O         0.686882   -2.93328   -5.043384 O.2        1 UNL1     -0.4528
     36 C         -1.376018   -3.402732   -1.891854 C.3        1 UNL1     0.0854
     37 C         -1.211165   -2.715951   -0.481649 C.3        1 UNL1     0.0236
     38 C         -2.521451   -1.969391   0.063825 C.3        1 UNL1     0.1131
     39 C         -3.278207   -0.934235   -0.862481 C.3        1 UNL1     0.0200
     40 C         -2.421026   0.179584   -1.760861 C.3        1 UNL1     0.0661
     41 C         -1.195581   1.196349   -1.175983 C.3        1 UNL1     0.0091
     42 C         0.303499   1.852153   -2.005491 C.3        1 UNL1     0.0661
     43 C         7.695009   -1.442024   -5.252543 C.2        1 UNL1     0.2131
     44 O         8.734868   -2.012365   -5.528484 O.2        1 UNL1     -0.2851
     45 O         7.288677   -3.459936   -7.157224 O.3        1 UNL1     -0.5056
     46 O         2.295941   -0.953677   -3.830316 O.2        1 UNL1     -0.2836
     47 C         0.326964   3.063872   -4.382253 C.3        1 UNL1     -0.0566
     48 O         0.086808   3.245532   -1.546517 O.3        1 UNL1     -0.3909
     49 C         -0.766196   0.707597   0.189391 C.3        1 UNL1     -0.0577
     50 O         -2.040807   -0.367807   -3.007264 O.3        1 UNL1     -0.3910
     51 O         -2.581129   -3.132424   -2.571613 O.3        1 UNL1     -0.3753
     52 C         0.223691   -2.126192   -0.285884 C.3        1 UNL1     -0.0564
     53 O         -2.457754   -1.635604   1.525623 O.3        1 UNL1     -0.4608
     54 C         -1.353211   -1.772593   2.325092 C.2        1 UNL1     0.3042
     55 O         -0.542498   -2.698108   2.326637 O.2        1 UNL1     -0.2512
     56 C         -1.127205   -0.605603   3.243661 C.3        1 UNL1     0.0332
     57 C         -4.470529   -1.716768   -1.586488 C.3        1 UNL1     -0.0567
     58 C         2.347132   -4.234663   -3.530994 C.3        1 UNL1     0.0210
     59 C         -3.6037   -4.110983   -2.39096 C.3        1 UNL1     0.0372
     60 C         -0.271744   -3.136963   -2.853677 C.2        1 UNL1     -0.0208
     61 C         -0.310957   -2.812949   -4.146821 C.2        1 UNL1     0.0882
     62 H         1.293138   1.237479   -3.820902 H        1 UNL1     0.0365
     63 H         3.113522   1.414073   -4.729332 H        1 UNL1     0.0576
     64 H         4.401016   4.146721   -4.119607 H        1 UNL1     0.0615
     65 H         5.402793   1.619757   -5.658681 H        1 UNL1     0.0622
     66 H         -1.338246   -4.480581   -1.680049 H        1 UNL1     0.0645
     67 H         -1.132515   -3.56319   0.221601 H        1 UNL1     0.0362
     68 H         -3.20025   -2.831192   0.153565 H        1 UNL1     0.0741
     69 H         -3.905668   -0.307059   -0.243328 H        1 UNL1     0.0359
     70 H         -3.232421   0.890955   -2.007134 H        1 UNL1     0.0600
     71 H         -1.795643   2.088151   -0.908453 H        1 UNL1     0.0348
     72 H         -0.377132   1.540671   -2.811119 H        1 UNL1     0.0602
     73 H         0.656313   -3.36727   -2.392247 H        1 UNL1     0.0628
     74 H         -1.212488   -2.507398   -4.67891 H        1 UNL1     0.1022
     75 H         8.746399   4.069988   -6.122502 H        1 UNL1     0.0279
     76 H         7.875753   4.878269   -4.880745 H        1 UNL1     0.0279
     77 H         8.999127   3.505159   -4.523118 H        1 UNL1     0.0279
     78 H         8.689818   1.434081   -4.017419 H        1 UNL1     0.1553
     79 H         7.276376   1.880809   -2.702566 H        1 UNL1     0.1484
     80 H         5.109743   0.095868   -0.141475 H        1 UNL1     0.0317
     81 H         6.320811   -0.735764   -1.106683 H        1 UNL1     0.0317
     82 H         7.91046   1.191551   -0.878254 H        1 UNL1     0.0428
     83 H         7.402328   0.547067   0.667109 H        1 UNL1     0.0428
     84 H         5.447409   4.087293   -0.655098 H        1 UNL1     0.0428
     85 H         6.682623   3.459758   -1.689298 H        1 UNL1     0.0428
     86 H         4.321681   2.928729   -2.296596 H        1 UNL1     0.0317
     87 H         4.026687   2.104156   -0.835293 H        1 UNL1     0.0317
     88 H         7.963051   3.839539   0.398332 H        1 UNL1     0.0429
     89 H         6.803595   3.762163   1.727207 H        1 UNL1     0.0429
     90 H         8.495264   1.306135   1.156123 H        1 UNL1     0.0308
     91 H         10.215034   3.088607   1.034965 H        1 UNL1     0.0233
     92 H         9.597844   3.811413   2.542321 H        1 UNL1     0.0233
     93 H         10.391072   2.251129   2.5724 H        1 UNL1     0.0233
     94 H         7.079078   2.527343   3.473834 H        1 UNL1     0.0233
     95 H         7.114164   0.856396   2.889852 H        1 UNL1     0.0233
     96 H         8.493928   1.50681   3.804841 H        1 UNL1     0.0233
     97 H         5.539026   -5.152618   -8.10738 H        1 UNL1     0.0280
     98 H         4.8187   -5.878434   -6.696172 H        1 UNL1     0.0280
     99 H         3.791983   -4.982453   -7.854965 H        1 UNL1     0.0280
     100 H         7.152168   -3.464788   -8.088333 H        1 UNL1     0.2922
     101 H         0.765352   4.007654   -4.705902 H        1 UNL1     0.0236
     102 H         -0.636943   3.20648   -3.894885 H        1 UNL1     0.0236
     103 H         0.09248   2.52886   -5.317653 H        1 UNL1     0.0236
     104 H         -0.703534   3.588461   -2.007743 H        1 UNL1     0.2098
     105 H         -0.353871   1.480032   0.833707 H        1 UNL1     0.0234
     106 H         -1.520901   0.131945   0.725089 H        1 UNL1     0.0234
     107 H         0.0   -0.0   0.0 H        1 UNL1     0.0234
     108 H         -2.271795   -1.316551   -2.99003 H        1 UNL1     0.2098
     109 H         0.786809   -2.080462   -1.228496 H        1 UNL1     0.0234
     110 H         0.222188   -1.13883   0.188308 H        1 UNL1     0.0234
     111 H         0.827006   -2.745674   0.391019 H        1 UNL1     0.0234
     112 H         -2.067103   -0.327277   3.729947 H        1 UNL1     0.0342
     113 H         -0.351301   -0.808511   3.980305 H        1 UNL1     0.0342
     114 H         -0.795633   0.248815   2.637695 H        1 UNL1     0.0342
     115 H         -5.186015   -1.027376   -2.055535 H        1 UNL1     0.0234
     116 H         -4.139143   -2.418613   -2.354373 H        1 UNL1     0.0234
     117 H         -5.12731   -2.262221   -0.887159 H        1 UNL1     0.0234
     118 H         2.916391   -3.756215   -2.714883 H        1 UNL1     0.0309
     119 H         1.450473   -4.70457   -3.11459 H        1 UNL1     0.0309
     120 H         3.000417   -5.055187   -3.847322 H        1 UNL1     0.0309
     121 H         -3.735448   -4.256151   -1.319081 H        1 UNL1     0.0524
     122 H         -4.572881   -3.784361   -2.803324 H        1 UNL1     0.0524
     123 H         -3.316684   -5.046147   -2.863383 H        1 UNL1     0.0524
@<TRIPOS>BOND
     1     1     2    1
     2     1    42    1
     3     2     3    2
     4     3     4    1
     5     4     5    2
     6     5     7    1
     7     6    75    1
     8     6    76    1
     9     6    77    1
    10     7     9   am
    11     9    10    1
    12    10    11    2
    13    10    43    1
    14    11    14    1
    15    11    15    1
    16    12    13   ar
    17    12    27   ar
    18    12    43    1
    19    13    14    1
    20    13    30   ar
    21    14    17    2
    22    15    16    1
    23    16    17    1
    24    16    18    1
    25    16    22    1
    26    18    19    1
    27    19    20    1
    28    20    21    1
    29    21    22    1
    30    23    24    1
    31    23    88    1
    32    23    89    1
    33    24    25    1
    34    24    26    1
    35    24    90    1
    36    25    91    1
    37    25    92    1
    38    25    93    1
    39    26    94    1
    40    26    95    1
    41    26    96    1
    42    27    28   ar
    43    28    29   ar
    44    29    30   ar
    45    29    31    1
    46    30    33    1
    47    31    32    1
    48    32    33    1
    49    32    35    1
    50    34    97    1
    51    34    98    1
    52    34    99    1
    53    35    61    1
    54    36    37    1
    55    36    60    1
    56    37    38    1
    57    38    39    1
    58    39    40    1
    59    40    41    1
    60    41    42    1
    61    45   100    1
    62    47   101    1
    63    47   102    1
    64    47   103    1
    65    48   104    1
    66    49   105    1
    67    49   106    1
    68    49   107    1
    69    50   108    1
    70    51    59    1
    71    52   109    1
    72    52   110    1
    73    52   111    1
    74    53    54    1
    75    54    55    2
    76    54    56    1
    77    56   112    1
    78    56   113    1
    79    56   114    1
    80    57   115    1
    81    57   116    1
    82    57   117    1
    83    58   118    1
    84    58   119    1
    85    58   120    1
    86    59   121    1
    87    59   122    1
    88    59   123    1
    89    60    61    2
    90     1    47    1
    91     1    62    1
    92     2    63    1
    93     3    64    1
    94     4    65    1
    95     5     6    1
    96     7     8    2
    97     9    78    1
    98    15    79    1
    99    18    80    1
   100    18    81    1
   101    19    82    1
   102    19    83    1
   103    20    23    1
   104    21    84    1
   105    21    85    1
   106    22    86    1
   107    22    87    1
   108    27    45    1
   109    28    34    1
   110    32    58    1
   111    33    46    2
   112    36    51    1
   113    36    66    1
   114    37    52    1
   115    37    67    1
   116    38    53    1
   117    38    68    1
   118    42    48    1
   119    42    72    1
   120    43    44    2
   121    60    73    1
   122    61    74    1
   123    39    69    1
   124    39    57    1
   125    40    70    1
   126    40    50    1
   127    41    71    1
   128    41    49    1
