@<TRIPOS>MOLECULE
*****
 123 128 0 0 0
SMALL
GASTEIGER

@<TRIPOS>ATOM
     1 C         5.165485   1.752839   0.494561 C.3        1 UNL1     0.0009
     2 C         6.604841   2.552604   -0.3573 C.2        1 UNL1     -0.0787
     3 C         7.888845   2.449483   -1.018169 C.2        1 UNL1     -0.0649
     4 C         8.768639   3.678926   -1.780264 C.2        1 UNL1     -0.0542
     5 C         9.791644   3.964544   -2.717794 C.2        1 UNL1     0.0115
     6 C         10.922632   3.332659   -3.575062 C.3        1 UNL1     -0.0348
     7 C         9.888845   5.443181   -3.335187 C.2        1 UNL1     0.2441
     8 O         10.711476   6.267721   -2.961106 O.2        1 UNL1     -0.2702
     9 N         9.142356   5.641238   -4.509784 N.am        1 UNL1     -0.2772
     10 C         7.858626   6.030184   -4.203059 C.2        1 UNL1     0.1049
     11 C         7.01196   5.060943   -3.906493 C.2        1 UNL1     0.0801
     12 C         6.555654   7.647357   -2.80866 C.ar        1 UNL1     0.0753
     13 C         5.795227   6.5228   -2.355084 C.ar        1 UNL1     0.0305
     14 C         5.914284   5.212267   -2.990204 C.2        1 UNL1     0.0924
     15 N         7.135154   3.730809   -4.055139 N.pl3        1 UNL1     -0.3170
     16 C         5.864328   3.133937   -3.740499 C.3        1 UNL1     0.1275
     17 N         5.224754   4.096505   -2.769864 N.2        1 UNL1     -0.2557
     18 C         5.015517   3.18339   -5.007297 C.3        1 UNL1     0.0016
     19 C         5.774033   2.490842   -6.128288 C.3        1 UNL1     0.0026
     20 N         6.04301   1.115716   -5.731161 N.3        1 UNL1     -0.3018
     21 C         6.802413   0.964752   -4.488226 C.3        1 UNL1     0.0026
     22 C         6.020057   1.663669   -3.374975 C.3        1 UNL1     0.0016
     23 C         6.491099   0.287846   -6.8332 C.3        1 UNL1     0.0012
     24 C         5.338809   0.030868   -7.817042 C.3        1 UNL1     -0.0339
     25 C         5.368034   1.025212   -8.989425 C.3        1 UNL1     -0.0615
     26 C         5.379862   -1.407551   -8.302888 C.3        1 UNL1     -0.0615
     27 C         6.349208   8.919079   -2.279301 C.ar        1 UNL1     0.1347
     28 C         5.387076   9.195807   -1.324432 C.ar        1 UNL1     0.0342
     29 C         4.684104   8.064819   -0.857677 C.ar        1 UNL1     0.1435
     30 C         4.905224   6.779023   -1.352707 C.ar        1 UNL1     0.0774
     31 O         3.640388   8.184759   -0.008396 O.3        1 UNL1     -0.4436
     32 C         2.919229   6.950846   -0.143531 C.3        1 UNL1     0.3143
     33 C         3.934269   5.953819   -0.664919 C.2        1 UNL1     0.2504
     34 C         4.938766   10.565172   -0.895529 C.3        1 UNL1     -0.0327
     35 O         2.554418   6.524088   1.174817 O.2        1 UNL1     -0.4528
     36 C         -0.687251   4.588716   0.782375 C.3        1 UNL1     0.0854
     37 C         -0.989632   3.321357   -0.106382 C.3        1 UNL1     0.0236
     38 C         -1.592633   2.066266   0.689157 C.3        1 UNL1     0.1131
     39 C         -0.871   1.545248   1.996847 C.3        1 UNL1     0.0200
     40 C         0.79006   1.400141   2.044408 C.3        1 UNL1     0.0661
     41 C         1.753186   0.622558   0.88451 C.3        1 UNL1     0.0091
     42 C         3.462544   0.980962   0.32322 C.3        1 UNL1     0.0661
     43 C         7.509273   7.431247   -3.924979 C.2        1 UNL1     0.2131
     44 O         7.911398   8.32389   -4.64901 O.2        1 UNL1     -0.2851
     45 O         7.162881   9.950746   -2.743023 O.3        1 UNL1     -0.5056
     46 O         3.9499   4.75131   -0.524984 O.2        1 UNL1     -0.2836
     47 C         5.557286   1.334292   1.937229 C.3        1 UNL1     -0.0566
     48 O         3.910914   -0.429451   0.417115 O.3        1 UNL1     -0.3909
     49 C         0.922963   0.380525   -0.356314 C.3        1 UNL1     -0.0577
     50 O         1.388946   2.620986   2.429888 O.3        1 UNL1     -0.3910
     51 O         -0.815759   4.409575   2.174792 O.3        1 UNL1     -0.3753
     52 C         0.058495   3.152238   -1.254327 C.3        1 UNL1     -0.0564
     53 O         -2.192319   1.020454   -0.2047 O.3        1 UNL1     -0.4608
     54 C         -2.415629   -0.286975   0.139815 C.2        1 UNL1     0.3042
     55 O         -1.84199   -1.283284   -0.298528 O.2        1 UNL1     -0.2512
     56 C         -3.448427   -0.456976   1.217378 C.3        1 UNL1     0.0332
     57 C         -1.596069   2.223724   3.250689 C.3        1 UNL1     -0.0567
     58 C         1.847478   7.18764   -1.232938 C.3        1 UNL1     0.0210
     59 C         -1.162274   5.587734   2.901245 C.3        1 UNL1     0.0372
     60 C         0.642443   5.21613   0.551228 C.2        1 UNL1     -0.0208
     61 C         1.552587   5.658002   1.420211 C.2        1 UNL1     0.0882
     62 H         4.689244   2.737611   0.572855 H        1 UNL1     0.0365
     63 H         6.338211   3.607152   -0.26083 H        1 UNL1     0.0576
     64 H         8.347244   1.481019   -1.230428 H        1 UNL1     0.0615
     65 H         8.280414   4.59689   -1.441942 H        1 UNL1     0.0622
     66 H         -1.430945   5.33282   0.464138 H        1 UNL1     0.0645
     67 H         -1.853246   3.62602   -0.72275 H        1 UNL1     0.0362
     68 H         -2.540837   2.505729   1.034561 H        1 UNL1     0.0741
     69 H         -1.203095   0.535637   2.198852 H        1 UNL1     0.0359
     70 H         0.899065   0.746516   2.930947 H        1 UNL1     0.0600
     71 H         1.795459   -0.395339   1.319315 H        1 UNL1     0.0348
     72 H         3.353528   1.476571   1.298823 H        1 UNL1     0.0602
     73 H         0.763622   5.405525   -0.48641 H        1 UNL1     0.0628
     74 H         1.531653   5.455453   2.491552 H        1 UNL1     0.1022
     75 H         10.966677   2.228575   -3.41353 H        1 UNL1     0.0279
     76 H         10.812422   3.407261   -4.654579 H        1 UNL1     0.0279
     77 H         11.926651   3.6399   -3.247571 H        1 UNL1     0.0279
     78 H         9.082061   4.767331   -5.028175 H        1 UNL1     0.1553
     79 H         7.802402   3.298196   -4.667152 H        1 UNL1     0.1484
     80 H         4.053646   2.693876   -4.812498 H        1 UNL1     0.0317
     81 H         4.789724   4.218043   -5.286872 H        1 UNL1     0.0317
     82 H         6.705455   3.020312   -6.377339 H        1 UNL1     0.0428
     83 H         5.151713   2.539178   -7.022397 H        1 UNL1     0.0428
     84 H         6.921798   -0.075817   -4.170777 H        1 UNL1     0.0428
     85 H         7.832814   1.332058   -4.591562 H        1 UNL1     0.0428
     86 H         6.533606   1.420235   -2.463385 H        1 UNL1     0.0317
     87 H         5.040241   1.186927   -3.249377 H        1 UNL1     0.0317
     88 H         7.288808   0.825683   -7.362054 H        1 UNL1     0.0429
     89 H         6.922621   -0.655208   -6.473739 H        1 UNL1     0.0429
     90 H         4.384259   0.141541   -7.289028 H        1 UNL1     0.0308
     91 H         6.318674   0.976255   -9.52886 H        1 UNL1     0.0233
     92 H         4.549974   0.825789   -9.68557 H        1 UNL1     0.0233
     93 H         5.242561   2.063612   -8.659548 H        1 UNL1     0.0233
     94 H         4.686244   -1.543513   -9.139695 H        1 UNL1     0.0233
     95 H         6.385373   -1.654459   -8.654947 H        1 UNL1     0.0233
     96 H         5.103014   -2.10539   -7.507686 H        1 UNL1     0.0233
     97 H         4.143084   10.520951   -0.157853 H        1 UNL1     0.0280
     98 H         5.749999   11.138812   -0.428523 H        1 UNL1     0.0280
     99 H         4.567825   11.123062   -1.770889 H        1 UNL1     0.0280
     100 H         6.696839   10.698588   -3.073417 H        1 UNL1     0.2922
     101 H         4.692894   0.904437   2.442904 H        1 UNL1     0.0236
     102 H         6.00619   2.144038   2.511493 H        1 UNL1     0.0236
     103 H         6.313573   0.53169   1.94462 H        1 UNL1     0.0236
     104 H         4.327679   -0.548777   1.292922 H        1 UNL1     0.2098
     105 H         0.712094   1.274965   -0.93711 H        1 UNL1     0.0234
     106 H         1.294469   -0.412427   -1.005265 H        1 UNL1     0.0234
     107 H         0.0   -0.0   0.0 H        1 UNL1     0.0234
     108 H         1.19017   3.274683   1.73208 H        1 UNL1     0.2098
     109 H         1.082123   3.041725   -0.870032 H        1 UNL1     0.0234
     110 H         -0.171751   2.319988   -1.92819 H        1 UNL1     0.0234
     111 H         0.081715   4.030073   -1.913731 H        1 UNL1     0.0234
     112 H         -3.574433   -1.519215   1.447849 H        1 UNL1     0.0342
     113 H         -3.202585   0.110769   2.11352 H        1 UNL1     0.0342
     114 H         -4.407155   -0.078984   0.836423 H        1 UNL1     0.0342
     115 H         -2.660377   1.955622   3.301264 H        1 UNL1     0.0234
     116 H         -1.14756   1.970502   4.213377 H        1 UNL1     0.0234
     117 H         -1.656399   3.323525   3.181844 H        1 UNL1     0.0234
     118 H         0.945077   7.677596   -0.827202 H        1 UNL1     0.0309
     119 H         2.219501   7.76921   -2.082395 H        1 UNL1     0.0309
     120 H         1.460302   6.252454   -1.652017 H        1 UNL1     0.0309
     121 H         -0.357651   6.309297   2.762372 H        1 UNL1     0.0524
     122 H         -2.091292   6.050725   2.528951 H        1 UNL1     0.0524
     123 H         -1.281289   5.357436   3.956182 H        1 UNL1     0.0524
@<TRIPOS>BOND
     1     1     2    1
     2     1    42    1
     3     2     3    2
     4     3     4    1
     5     4     5    2
     6     5     7    1
     7     6    75    1
     8     6    76    1
     9     6    77    1
    10     7     9   am
    11     9    10    1
    12    10    11    2
    13    10    43    1
    14    11    14    1
    15    11    15    1
    16    12    13   ar
    17    12    27   ar
    18    12    43    1
    19    13    14    1
    20    13    30   ar
    21    14    17    2
    22    15    16    1
    23    16    17    1
    24    16    18    1
    25    16    22    1
    26    18    19    1
    27    19    20    1
    28    20    21    1
    29    21    22    1
    30    23    24    1
    31    23    88    1
    32    23    89    1
    33    24    25    1
    34    24    26    1
    35    24    90    1
    36    25    91    1
    37    25    92    1
    38    25    93    1
    39    26    94    1
    40    26    95    1
    41    26    96    1
    42    27    28   ar
    43    28    29   ar
    44    29    30   ar
    45    29    31    1
    46    30    33    1
    47    31    32    1
    48    32    33    1
    49    32    35    1
    50    34    97    1
    51    34    98    1
    52    34    99    1
    53    35    61    1
    54    36    37    1
    55    36    60    1
    56    37    38    1
    57    38    39    1
    58    39    40    1
    59    40    41    1
    60    41    42    1
    61    45   100    1
    62    47   101    1
    63    47   102    1
    64    47   103    1
    65    48   104    1
    66    49   105    1
    67    49   106    1
    68    49   107    1
    69    50   108    1
    70    51    59    1
    71    52   109    1
    72    52   110    1
    73    52   111    1
    74    53    54    1
    75    54    55    2
    76    54    56    1
    77    56   112    1
    78    56   113    1
    79    56   114    1
    80    57   115    1
    81    57   116    1
    82    57   117    1
    83    58   118    1
    84    58   119    1
    85    58   120    1
    86    59   121    1
    87    59   122    1
    88    59   123    1
    89    60    61    2
    90     1    47    1
    91     1    62    1
    92     2    63    1
    93     3    64    1
    94     4    65    1
    95     5     6    1
    96     7     8    2
    97     9    78    1
    98    15    79    1
    99    18    80    1
   100    18    81    1
   101    19    82    1
   102    19    83    1
   103    20    23    1
   104    21    84    1
   105    21    85    1
   106    22    86    1
   107    22    87    1
   108    27    45    1
   109    28    34    1
   110    32    58    1
   111    33    46    2
   112    36    51    1
   113    36    66    1
   114    37    52    1
   115    37    67    1
   116    38    53    1
   117    38    68    1
   118    42    48    1
   119    42    72    1
   120    43    44    2
   121    60    73    1
   122    61    74    1
   123    39    69    1
   124    39    57    1
   125    40    70    1
   126    40    50    1
   127    41    71    1
   128    41    49    1
