@<TRIPOS>MOLECULE
*****
 123 128 0 0 0
SMALL
GASTEIGER

@<TRIPOS>ATOM
     1 C         3.623642   0.82745   -4.024463 C.3        1 UNL1     0.0009
     2 C         5.159273   0.207233   -4.857652 C.2        1 UNL1     -0.0787
     3 C         6.586766   0.291236   -5.084049 C.2        1 UNL1     -0.0649
     4 C         7.561364   -0.760969   -5.983704 C.2        1 UNL1     -0.0542
     5 C         8.885953   -1.210991   -6.20736 C.2        1 UNL1     0.0115
     6 C         10.37981   -0.928598   -5.888033 C.3        1 UNL1     -0.0348
     7 C         9.114395   -2.607605   -6.965168 C.2        1 UNL1     0.2441
     8 O         9.43919   -2.680598   -8.142328 O.2        1 UNL1     -0.2702
     9 N         9.172101   -3.731936   -6.123323 N.am        1 UNL1     -0.2772
     10 C         7.910573   -4.239401   -5.912732 C.2        1 UNL1     0.1049
     11 C         7.196687   -3.651607   -4.969819 C.2        1 UNL1     0.0801
     12 C         5.827351   -4.935748   -7.109653 C.ar        1 UNL1     0.0753
     13 C         5.113086   -4.111413   -6.182882 C.ar        1 UNL1     0.0305
     14 C         5.762988   -3.54744   -5.001945 C.2        1 UNL1     0.0924
     15 N         7.569578   -2.767171   -4.028939 N.pl3        1 UNL1     -0.3170
     16 C         6.452908   -2.571059   -3.143025 C.3        1 UNL1     0.1275
     17 N         5.239988   -2.852138   -3.995985 N.2        1 UNL1     -0.2557
     18 C         6.503291   -3.682541   -2.099104 C.3        1 UNL1     0.0016
     19 C         7.86086   -3.646525   -1.415511 C.3        1 UNL1     0.0026
     20 N         8.039261   -2.339526   -0.798296 N.3        1 UNL1     -0.3018
     21 C         7.945485   -1.201194   -1.714688 C.3        1 UNL1     0.0026
     22 C         6.572427   -1.254463   -2.386825 C.3        1 UNL1     0.0016
     23 C         9.156278   -2.299323   0.124364 C.3        1 UNL1     0.0012
     24 C         8.842191   -3.118123   1.386375 C.3        1 UNL1     -0.0339
     25 C         9.486668   -2.495282   2.635685 C.3        1 UNL1     -0.0615
     26 C         7.339637   -3.268969   1.548726 C.3        1 UNL1     -0.0615
     27 C         5.174481   -5.567756   -8.165327 C.ar        1 UNL1     0.1347
     28 C         3.809191   -5.482722   -8.372212 C.ar        1 UNL1     0.0342
     29 C         3.13418   -4.62652   -7.47642 C.ar        1 UNL1     0.1435
     30 C         3.780811   -3.958187   -6.436026 C.ar        1 UNL1     0.0774
     31 O         1.78712   -4.524393   -7.478946 O.3        1 UNL1     -0.4436
     32 C         1.462323   -3.979448   -6.191152 C.3        1 UNL1     0.3143
     33 C         2.719392   -3.267578   -5.733734 C.2        1 UNL1     0.2504
     34 C         3.007288   -6.326804   -9.323304 C.3        1 UNL1     -0.0327
     35 O         0.463196   -2.972615   -6.394342 O.2        1 UNL1     -0.4528
     36 C         -1.631558   -2.931528   -3.229156 C.3        1 UNL1     0.0854
     37 C         -1.177685   -2.696986   -1.737006 C.3        1 UNL1     0.0236
     38 C         -1.94644   -1.513876   -0.974766 C.3        1 UNL1     0.1131
     39 C         -2.055923   -0.086804   -1.648376 C.3        1 UNL1     0.0200
     40 C         -0.73277   0.596469   -2.399936 C.3        1 UNL1     0.0661
     41 C         0.823314   0.73586   -1.739041 C.3        1 UNL1     0.0091
     42 C         2.468392   0.698448   -2.550042 C.3        1 UNL1     0.0661
     43 C         7.271219   -5.167618   -6.857186 C.2        1 UNL1     0.2131
     44 O         7.888633   -6.117238   -7.304132 O.2        1 UNL1     -0.2851
     45 O         5.950405   -6.315364   -9.048764 O.3        1 UNL1     -0.5056
     46 O         2.820192   -2.327628   -4.977303 O.2        1 UNL1     -0.2836
     47 C         3.156986   2.157598   -4.674785 C.3        1 UNL1     -0.0566
     48 O         2.971907   1.899541   -1.840842 O.3        1 UNL1     -0.3909
     49 C         0.914606   -0.147856   -0.515028 C.3        1 UNL1     -0.0577
     50 O         -0.649739   0.177254   -3.747188 O.3        1 UNL1     -0.3910
     51 O         -2.519477   -1.974197   -3.760708 O.3        1 UNL1     -0.3753
     52 C         0.353648   -2.950438   -1.547977 C.3        1 UNL1     -0.0564
     53 O         -1.758979   -1.537235   0.514072 O.3        1 UNL1     -0.4608
     54 C         -1.627731   -0.434032   1.316348 C.2        1 UNL1     0.3042
     55 O         -0.59183   0.014575   1.805735 O.2        1 UNL1     -0.2512
     56 C         -2.917971   0.300914   1.544054 C.3        1 UNL1     0.0332
     57 C         -3.462028   -0.018439   -2.407567 C.3        1 UNL1     -0.0567
     58 C         1.204483   -5.18554   -5.258205 C.3        1 UNL1     0.0210
     59 C         -3.368823   -2.456758   -4.800715 C.3        1 UNL1     0.0372
     60 C         -0.520639   -3.077221   -4.208846 C.2        1 UNL1     -0.0208
     61 C         -0.359742   -2.54108   -5.419387 C.2        1 UNL1     0.0882
     62 H         3.057674   0.02495   -4.512712 H        1 UNL1     0.0365
     63 H         4.740761   -0.563445   -5.508322 H        1 UNL1     0.0576
     64 H         7.214099   0.992261   -4.528959 H        1 UNL1     0.0615
     65 H         6.843912   -1.357212   -6.554001 H        1 UNL1     0.0622
     66 H         -2.147014   -3.902117   -3.211555 H        1 UNL1     0.0645
     67 H         -1.553677   -3.584956   -1.199698 H        1 UNL1     0.0362
     68 H         -2.968882   -1.921302   -0.986562 H        1 UNL1     0.0741
     69 H         -2.296963   0.640843   -0.884937 H        1 UNL1     0.0359
     70 H         -1.069118   1.649345   -2.458097 H        1 UNL1     0.0600
     71 H         0.747804   1.73967   -1.27685 H        1 UNL1     0.0348
     72 H         1.743408   0.92544   -3.345146 H        1 UNL1     0.0602
     73 H         0.15351   -3.821566   -3.864285 H        1 UNL1     0.0628
     74 H         -0.971361   -1.733054   -5.822194 H        1 UNL1     0.1022
     75 H         10.614906   0.152855   -6.037108 H        1 UNL1     0.0279
     76 H         10.696872   -1.097908   -4.861449 H        1 UNL1     0.0279
     77 H         11.065032   -1.400577   -6.607343 H        1 UNL1     0.0279
     78 H         9.54881   -3.461751   -5.21714 H        1 UNL1     0.1553
     79 H         8.521178   -2.625113   -3.743968 H        1 UNL1     0.1484
     80 H         5.688652   -3.534722   -1.379883 H        1 UNL1     0.0317
     81 H         6.339121   -4.66164   -2.561776 H        1 UNL1     0.0317
     82 H         8.677043   -3.866638   -2.119292 H        1 UNL1     0.0428
     83 H         7.875921   -4.448181   -0.676477 H        1 UNL1     0.0428
     84 H         8.003226   -0.229471   -1.214454 H        1 UNL1     0.0428
     85 H         8.779032   -1.182801   -2.430354 H        1 UNL1     0.0428
     86 H         6.487612   -0.340523   -2.944955 H        1 UNL1     0.0317
     87 H         5.781883   -1.16502   -1.631752 H        1 UNL1     0.0317
     88 H         10.027013   -2.745289   -0.373863 H        1 UNL1     0.0429
     89 H         9.425801   -1.266336   0.379447 H        1 UNL1     0.0429
     90 H         9.233528   -4.134733   1.261582 H        1 UNL1     0.0308
     91 H         9.320865   -1.414401   2.671837 H        1 UNL1     0.0233
     92 H         9.085971   -2.950178   3.544596 H        1 UNL1     0.0233
     93 H         10.571677   -2.651946   2.668048 H        1 UNL1     0.0233
     94 H         7.092902   -3.490616   2.592675 H        1 UNL1     0.0233
     95 H         6.838709   -2.33628   1.274638 H        1 UNL1     0.0233
     96 H         6.949669   -4.076313   0.922557 H        1 UNL1     0.0233
     97 H         3.61155   -7.097014   -9.793278 H        1 UNL1     0.0280
     98 H         2.187653   -6.854349   -8.818179 H        1 UNL1     0.0280
     99 H         2.583494   -5.688503   -10.115809 H        1 UNL1     0.0280
     100 H         6.71507   -5.871138   -9.370593 H        1 UNL1     0.2922
     101 H         2.10536   2.32946   -4.446309 H        1 UNL1     0.0236
     102 H         3.355982   2.204486   -5.744918 H        1 UNL1     0.0236
     103 H         3.681429   3.031188   -4.252891 H        1 UNL1     0.0236
     104 H         2.231911   2.534256   -1.77366 H        1 UNL1     0.2098
     105 H         1.005926   -1.208967   -0.733006 H        1 UNL1     0.0234
     106 H         1.66975   0.155196   0.210123 H        1 UNL1     0.0234
     107 H         0.0   0.0   0.0 H        1 UNL1     0.0234
     108 H         0.242345   0.410355   -4.069085 H        1 UNL1     0.2098
     109 H         0.65734   -3.945626   -1.901647 H        1 UNL1     0.0234
     110 H         0.978243   -2.186348   -2.023152 H        1 UNL1     0.0234
     111 H         0.642901   -2.910152   -0.489366 H        1 UNL1     0.0234
     112 H         -3.009199   0.574405   2.599623 H        1 UNL1     0.0342
     113 H         -3.008501   1.177354   0.904132 H        1 UNL1     0.0342
     114 H         -3.74697   -0.377225   1.298997 H        1 UNL1     0.0342
     115 H         -3.884291   0.995815   -2.394559 H        1 UNL1     0.0234
     116 H         -3.420494   -0.343495   -3.449038 H        1 UNL1     0.0234
     117 H         -4.261793   -0.588698   -1.904455 H        1 UNL1     0.0234
     118 H         0.544526   -4.922344   -4.413106 H        1 UNL1     0.0309
     119 H         0.788015   -6.052125   -5.781452 H        1 UNL1     0.0309
     120 H         2.117065   -5.538543   -4.76557 H        1 UNL1     0.0309
     121 H         -3.646724   -1.605213   -5.421196 H        1 UNL1     0.0524
     122 H         -2.860533   -3.188855   -5.450109 H        1 UNL1     0.0524
     123 H         -4.256742   -2.917687   -4.37735 H        1 UNL1     0.0524
@<TRIPOS>BOND
     1     1     2    1
     2     1    42    1
     3     2     3    2
     4     3     4    1
     5     4     5    2
     6     5     7    1
     7     6    75    1
     8     6    76    1
     9     6    77    1
    10     7     9   am
    11     9    10    1
    12    10    11    2
    13    10    43    1
    14    11    14    1
    15    11    15    1
    16    12    13   ar
    17    12    27   ar
    18    12    43    1
    19    13    14    1
    20    13    30   ar
    21    14    17    2
    22    15    16    1
    23    16    17    1
    24    16    18    1
    25    16    22    1
    26    18    19    1
    27    19    20    1
    28    20    21    1
    29    21    22    1
    30    23    24    1
    31    23    88    1
    32    23    89    1
    33    24    25    1
    34    24    26    1
    35    24    90    1
    36    25    91    1
    37    25    92    1
    38    25    93    1
    39    26    94    1
    40    26    95    1
    41    26    96    1
    42    27    28   ar
    43    28    29   ar
    44    29    30   ar
    45    29    31    1
    46    30    33    1
    47    31    32    1
    48    32    33    1
    49    32    35    1
    50    34    97    1
    51    34    98    1
    52    34    99    1
    53    35    61    1
    54    36    37    1
    55    36    60    1
    56    37    38    1
    57    38    39    1
    58    39    40    1
    59    40    41    1
    60    41    42    1
    61    45   100    1
    62    47   101    1
    63    47   102    1
    64    47   103    1
    65    48   104    1
    66    49   105    1
    67    49   106    1
    68    49   107    1
    69    50   108    1
    70    51    59    1
    71    52   109    1
    72    52   110    1
    73    52   111    1
    74    53    54    1
    75    54    55    2
    76    54    56    1
    77    56   112    1
    78    56   113    1
    79    56   114    1
    80    57   115    1
    81    57   116    1
    82    57   117    1
    83    58   118    1
    84    58   119    1
    85    58   120    1
    86    59   121    1
    87    59   122    1
    88    59   123    1
    89    60    61    2
    90     1    47    1
    91     1    62    1
    92     2    63    1
    93     3    64    1
    94     4    65    1
    95     5     6    1
    96     7     8    2
    97     9    78    1
    98    15    79    1
    99    18    80    1
   100    18    81    1
   101    19    82    1
   102    19    83    1
   103    20    23    1
   104    21    84    1
   105    21    85    1
   106    22    86    1
   107    22    87    1
   108    27    45    1
   109    28    34    1
   110    32    58    1
   111    33    46    2
   112    36    51    1
   113    36    66    1
   114    37    52    1
   115    37    67    1
   116    38    53    1
   117    38    68    1
   118    42    48    1
   119    42    72    1
   120    43    44    2
   121    60    73    1
   122    61    74    1
   123    39    69    1
   124    39    57    1
   125    40    70    1
   126    40    50    1
   127    41    71    1
   128    41    49    1
