@<TRIPOS>MOLECULE
*****
 123 128 0 0 0
SMALL
GASTEIGER

@<TRIPOS>ATOM
     1 C         -2.775188   2.017295   2.411184 C.3        1 UNL1     0.0009
     2 C         -4.234828   3.015052   1.853539 C.2        1 UNL1     -0.0787
     3 C         -4.860707   4.297856   1.611182 C.2        1 UNL1     -0.0649
     4 C         -6.364801   4.603394   0.896547 C.2        1 UNL1     -0.0542
     5 C         -7.164634   5.573924   0.244306 C.2        1 UNL1     0.0115
     6 C         -7.264713   7.08069   -0.120337 C.3        1 UNL1     -0.0348
     7 C         -8.439393   5.088556   -0.602095 C.2        1 UNL1     0.2441
     8 O         -9.586293   5.172226   -0.184788 O.2        1 UNL1     -0.2702
     9 N         -8.17562   4.803998   -1.953244 N.am        1 UNL1     -0.2772
     10 C         -7.783637   3.493253   -2.10028 C.2        1 UNL1     0.1049
     11 C         -6.50952   3.236935   -1.865443 C.2        1 UNL1     0.0801
     12 C         -8.40947   1.153597   -1.47444 C.ar        1 UNL1     0.0753
     13 C         -7.056201   0.992052   -1.037204 C.ar        1 UNL1     0.0305
     14 C         -6.030097   1.987068   -1.340693 C.2        1 UNL1     0.0924
     15 N         -5.473976   4.078961   -1.706802 N.pl3        1 UNL1     -0.3170
     16 C         -4.271789   3.290643   -1.64718 C.3        1 UNL1     0.1275
     17 N         -4.72158   1.956105   -1.104576 N.2        1 UNL1     -0.2557
     18 C         -3.826756   3.035362   -3.084009 C.3        1 UNL1     0.0016
     19 C         -3.665951   4.373164   -3.788293 C.3        1 UNL1     0.0026
     20 N         -2.679612   5.165802   -3.06726 N.3        1 UNL1     -0.3018
     21 C         -2.990284   5.412459   -1.657646 C.3        1 UNL1     0.0026
     22 C         -3.142977   4.055358   -0.968547 C.3        1 UNL1     0.0016
     23 C         -2.233299   6.325381   -3.813467 C.3        1 UNL1     0.0012
     24 C         -1.367191   5.896365   -5.008272 C.3        1 UNL1     -0.0339
     25 C         -0.257383   6.921125   -5.295067 C.3        1 UNL1     -0.0615
     26 C         -0.798257   4.508877   -4.767497 C.3        1 UNL1     -0.0615
     27 C         -9.353578   0.146799   -1.286996 C.ar        1 UNL1     0.1347
     28 C         -9.054246   -1.075931   -0.713076 C.ar        1 UNL1     0.0342
     29 C         -7.727872   -1.193753   -0.246157 C.ar        1 UNL1     0.1435
     30 C         -6.78061   -0.179888   -0.39446 C.ar        1 UNL1     0.0774
     31 O         -7.251957   -2.362152   0.236911 O.3        1 UNL1     -0.4436
     32 C         -5.8245   -2.234452   0.153652 C.3        1 UNL1     0.3143
     33 C         -5.560103   -0.742397   0.144716 C.2        1 UNL1     0.2504
     34 C         -9.943239   -2.288264   -0.706855 C.3        1 UNL1     -0.0327
     35 O         -5.278953   -2.747506   1.375292 O.2        1 UNL1     -0.4528
     36 C         -1.85896   -4.133763   0.486458 C.3        1 UNL1     0.0854
     37 C         -0.630809   -3.403655   -0.181457 C.3        1 UNL1     0.0236
     38 C         0.739571   -3.491064   0.646893 C.3        1 UNL1     0.1131
     39 C         0.756271   -3.102722   2.18025 C.3        1 UNL1     0.0200
     40 C         -0.052047   -1.745913   2.717025 C.3        1 UNL1     0.0661
     41 C         0.065295   -0.190571   2.050126 C.3        1 UNL1     0.0091
     42 C         -1.181914   1.149225   1.928388 C.3        1 UNL1     0.0661
     43 C         -8.752818   2.393251   -2.21446 C.2        1 UNL1     0.2131
     44 O         -9.71105   2.488677   -2.959726 O.2        1 UNL1     -0.2851
     45 O         -10.659479   0.401931   -1.70048 O.3        1 UNL1     -0.5056
     46 O         -4.572955   -0.149801   0.519179 O.2        1 UNL1     -0.2836
     47 C         -2.660399   2.048318   3.959035 C.3        1 UNL1     -0.0566
     48 O         -0.263752   2.204162   2.421545 O.3        1 UNL1     -0.3909
     49 C         0.741415   -0.287932   0.700728 C.3        1 UNL1     -0.0577
     50 O         -1.402658   -2.047942   3.003996 O.3        1 UNL1     -0.3910
     51 O         -1.651481   -4.616983   1.794465 O.3        1 UNL1     -0.3753
     52 C         -1.065643   -2.103921   -0.934159 C.3        1 UNL1     -0.0564
     53 O         1.950186   -3.107153   -0.1527 O.3        1 UNL1     -0.4608
     54 C         2.987171   -2.332314   0.296986 C.2        1 UNL1     0.3042
     55 O         3.189774   -1.142845   0.05625 O.2        1 UNL1     -0.2512
     56 C         3.9182   -3.055202   1.228292 C.3        1 UNL1     0.0332
     57 C         0.587217   -4.45251   3.02148 C.3        1 UNL1     -0.0567
     58 C         -5.411881   -2.822426   -1.215859 C.3        1 UNL1     0.0210
     59 C         -1.54573   -6.036016   1.899473 C.3        1 UNL1     0.0372
     60 C         -3.120141   -3.343996   0.515644 C.2        1 UNL1     -0.0208
     61 C         -4.003196   -3.161392   1.4983 C.2        1 UNL1     0.0882
     62 H         -3.326407   1.104055   2.156504 H        1 UNL1     0.0365
     63 H         -4.961208   2.222842   1.660553 H        1 UNL1     0.0576
     64 H         -4.311802   5.234481   1.731779 H        1 UNL1     0.0615
     65 H         -6.856329   3.626724   0.896099 H        1 UNL1     0.0622
     66 H         -2.057481   -4.994456   -0.167638 H        1 UNL1     0.0645
     67 H         -0.395155   -4.026398   -1.061921 H        1 UNL1     0.0362
     68 H         0.901812   -4.579394   0.619759 H        1 UNL1     0.0741
     69 H         1.777196   -2.903718   2.477769 H        1 UNL1     0.0359
     70 H         0.420854   -1.622637   3.710115 H        1 UNL1     0.0600
     71 H         0.881738   0.22548   2.672444 H        1 UNL1     0.0348
     72 H         -1.541006   0.471317   2.716302 H        1 UNL1     0.0602
     73 H         -3.33531   -2.993254   -0.463095 H        1 UNL1     0.0628
     74 H         -3.833448   -3.438504   2.539276 H        1 UNL1     0.1022
     75 H         -7.044491   7.715364   0.771697 H        1 UNL1     0.0279
     76 H         -6.551269   7.450913   -0.853141 H        1 UNL1     0.0279
     77 H         -8.291683   7.392857   -0.360306 H        1 UNL1     0.0279
     78 H         -7.412446   5.390877   -2.28372 H        1 UNL1     0.1553
     79 H         -5.48243   5.035517   -2.009892 H        1 UNL1     0.1484
     80 H         -2.885132   2.47325   -3.07212 H        1 UNL1     0.0317
     81 H         -4.555978   2.414112   -3.614985 H        1 UNL1     0.0317
     82 H         -4.623191   4.909183   -3.867579 H        1 UNL1     0.0428
     83 H         -3.350005   4.167828   -4.811555 H        1 UNL1     0.0428
     84 H         -2.197045   5.940735   -1.119588 H        1 UNL1     0.0428
     85 H         -3.869708   6.060644   -1.540232 H        1 UNL1     0.0428
     86 H         -3.236518   4.271696   0.079516 H        1 UNL1     0.0317
     87 H         -2.201276   3.496237   -1.029217 H        1 UNL1     0.0317
     88 H         -3.120169   6.848343   -4.194607 H        1 UNL1     0.0429
     89 H         -1.695736   7.03211   -3.168227 H        1 UNL1     0.0429
     90 H         -2.001108   5.80978   -5.898702 H        1 UNL1     0.0308
     91 H         0.2522   7.223422   -4.375261 H        1 UNL1     0.0233
     92 H         0.476082   6.51099   -5.993226 H        1 UNL1     0.0233
     93 H         -0.643853   7.836129   -5.760087 H        1 UNL1     0.0233
     94 H         0.092935   4.353672   -5.385173 H        1 UNL1     0.0233
     95 H         -0.504802   4.402082   -3.719432 H        1 UNL1     0.0233
     96 H         -1.527245   3.730893   -5.010983 H        1 UNL1     0.0233
     97 H         -9.497084   -3.12342   -1.238541 H        1 UNL1     0.0280
     98 H         -10.141429   -2.650888   0.31024 H        1 UNL1     0.0280
     99 H         -10.90346   -2.044259   -1.190107 H        1 UNL1     0.0280
     100 H         -11.010447   1.223414   -1.404491 H        1 UNL1     0.2922
     101 H         -2.999748   1.098596   4.371984 H        1 UNL1     0.0236
     102 H         -3.173513   2.897046   4.409987 H        1 UNL1     0.0236
     103 H         -1.614139   2.141657   4.294926 H        1 UNL1     0.0236
     104 H         0.283956   1.811314   3.129116 H        1 UNL1     0.2098
     105 H         1.592894   0.376337   0.576063 H        1 UNL1     0.0234
     106 H         1.004347   -1.300558   0.395143 H        1 UNL1     0.0234
     107 H         0.0   0.0   -0.0 H        1 UNL1     0.0234
     108 H         -1.878044   -1.199075   3.088845 H        1 UNL1     0.2098
     109 H         -1.776845   -2.311482   -1.745837 H        1 UNL1     0.0234
     110 H         -1.481918   -1.340002   -0.268661 H        1 UNL1     0.0234
     111 H         -0.209904   -1.605684   -1.40894 H        1 UNL1     0.0234
     112 H         4.708048   -2.377064   1.56536 H        1 UNL1     0.0342
     113 H         3.391869   -3.493422   2.074922 H        1 UNL1     0.0342
     114 H         4.392906   -3.874592   0.67114 H        1 UNL1     0.0342
     115 H         1.154171   -4.421227   3.962104 H        1 UNL1     0.0234
     116 H         -0.448142   -4.693987   3.270018 H        1 UNL1     0.0234
     117 H         1.034665   -5.334751   2.532214 H        1 UNL1     0.0234
     118 H         -4.859272   -3.772352   -1.109696 H        1 UNL1     0.0309
     119 H         -6.259883   -2.974927   -1.891017 H        1 UNL1     0.0309
     120 H         -4.707356   -2.179217   -1.754407 H        1 UNL1     0.0309
     121 H         -1.84832   -6.315418   2.9083 H        1 UNL1     0.0524
     122 H         -2.214611   -6.558622   1.195542 H        1 UNL1     0.0524
     123 H         -0.522878   -6.351427   1.714049 H        1 UNL1     0.0524
@<TRIPOS>BOND
     1     1     2    1
     2     1    42    1
     3     2     3    2
     4     3     4    1
     5     4     5    2
     6     5     7    1
     7     6    75    1
     8     6    76    1
     9     6    77    1
    10     7     9   am
    11     9    10    1
    12    10    11    2
    13    10    43    1
    14    11    14    1
    15    11    15    1
    16    12    13   ar
    17    12    27   ar
    18    12    43    1
    19    13    14    1
    20    13    30   ar
    21    14    17    2
    22    15    16    1
    23    16    17    1
    24    16    18    1
    25    16    22    1
    26    18    19    1
    27    19    20    1
    28    20    21    1
    29    21    22    1
    30    23    24    1
    31    23    88    1
    32    23    89    1
    33    24    25    1
    34    24    26    1
    35    24    90    1
    36    25    91    1
    37    25    92    1
    38    25    93    1
    39    26    94    1
    40    26    95    1
    41    26    96    1
    42    27    28   ar
    43    28    29   ar
    44    29    30   ar
    45    29    31    1
    46    30    33    1
    47    31    32    1
    48    32    33    1
    49    32    35    1
    50    34    97    1
    51    34    98    1
    52    34    99    1
    53    35    61    1
    54    36    37    1
    55    36    60    1
    56    37    38    1
    57    38    39    1
    58    39    40    1
    59    40    41    1
    60    41    42    1
    61    45   100    1
    62    47   101    1
    63    47   102    1
    64    47   103    1
    65    48   104    1
    66    49   105    1
    67    49   106    1
    68    49   107    1
    69    50   108    1
    70    51    59    1
    71    52   109    1
    72    52   110    1
    73    52   111    1
    74    53    54    1
    75    54    55    2
    76    54    56    1
    77    56   112    1
    78    56   113    1
    79    56   114    1
    80    57   115    1
    81    57   116    1
    82    57   117    1
    83    58   118    1
    84    58   119    1
    85    58   120    1
    86    59   121    1
    87    59   122    1
    88    59   123    1
    89    60    61    2
    90     1    47    1
    91     1    62    1
    92     2    63    1
    93     3    64    1
    94     4    65    1
    95     5     6    1
    96     7     8    2
    97     9    78    1
    98    15    79    1
    99    18    80    1
   100    18    81    1
   101    19    82    1
   102    19    83    1
   103    20    23    1
   104    21    84    1
   105    21    85    1
   106    22    86    1
   107    22    87    1
   108    27    45    1
   109    28    34    1
   110    32    58    1
   111    33    46    2
   112    36    51    1
   113    36    66    1
   114    37    52    1
   115    37    67    1
   116    38    53    1
   117    38    68    1
   118    42    48    1
   119    42    72    1
   120    43    44    2
   121    60    73    1
   122    61    74    1
   123    39    69    1
   124    39    57    1
   125    40    70    1
   126    40    50    1
   127    41    71    1
   128    41    49    1
