@<TRIPOS>MOLECULE
*****
 123 128 0 0 0
SMALL
GASTEIGER

@<TRIPOS>ATOM
     1 C         2.921928   -4.142532   2.076901 C.3        1 UNL1     0.0009
     2 C         2.876246   -5.69963   3.082086 C.2        1 UNL1     -0.0787
     3 C         3.107426   -6.396342   4.329962 C.2        1 UNL1     -0.0649
     4 C         2.713315   -7.996806   4.716677 C.2        1 UNL1     -0.0542
     5 C         2.486021   -8.913971   5.772245 C.2        1 UNL1     0.0115
     6 C         2.601021   -9.115665   7.308285 C.3        1 UNL1     -0.0348
     7 C         1.703196   -10.280083   5.459338 C.2        1 UNL1     0.2441
     8 O         2.268992   -11.357351   5.333261 O.2        1 UNL1     -0.2702
     9 N         0.306424   -10.203633   5.59838 N.am        1 UNL1     -0.2772
     10 C         -0.271788   -9.793225   4.41916 C.2        1 UNL1     0.1049
     11 C         -0.287858   -8.490745   4.201193 C.2        1 UNL1     0.0801
     12 C         -0.294452   -10.244182   1.958782 C.ar        1 UNL1     0.0753
     13 C         -0.100916   -8.837529   1.778564 C.ar        1 UNL1     0.0305
     14 C         -0.22336   -7.899454   2.892151 C.2        1 UNL1     0.0924
     15 N         -0.019572   -7.471882   5.035741 N.pl3        1 UNL1     -0.3170
     16 C         -0.350253   -6.247916   4.355438 C.3        1 UNL1     0.1275
     17 N         -0.175691   -6.570299   2.89143 N.2        1 UNL1     -0.2557
     18 C         -1.842499   -6.005463   4.560674 C.3        1 UNL1     0.0016
     19 C         -2.13231   -5.992229   6.05313 C.3        1 UNL1     0.0026
     20 N         -1.340184   -4.939654   6.674137 N.3        1 UNL1     -0.3018
     21 C         0.106638   -5.052832   6.478523 C.3        1 UNL1     0.0026
     22 C         0.375316   -5.059577   4.972647 C.3        1 UNL1     0.0016
     23 C         -1.758935   -4.64409   8.029841 C.3        1 UNL1     0.0012
     24 C         -3.124889   -5.284246   8.323313 C.3        1 UNL1     -0.0339
     25 C         -3.073635   -6.167017   9.581147 C.3        1 UNL1     -0.0615
     26 C         -4.190372   -4.208046   8.438718 C.3        1 UNL1     -0.0615
     27 C         -0.295769   -11.11742   0.873622 C.ar        1 UNL1     0.1347
     28 C         -0.153751   -10.698102   -0.437123 C.ar        1 UNL1     0.0342
     29 C         0.084283   -9.31525   -0.586204 C.ar        1 UNL1     0.1435
     30 C         0.124338   -8.433511   0.494607 C.ar        1 UNL1     0.0774
     31 O         0.133968   -8.736136   -1.805697 O.3        1 UNL1     -0.4436
     32 C         -0.088654   -7.340489   -1.553744 C.3        1 UNL1     0.3143
     33 C         0.312209   -7.130134   -0.10762 C.2        1 UNL1     0.2504
     34 C         -0.394614   -11.535971   -1.661893 C.3        1 UNL1     -0.0327
     35 O         0.845708   -6.608388   -2.356394 O.2        1 UNL1     -0.4528
     36 C         -0.842467   -3.306998   -3.16817 C.3        1 UNL1     0.0854
     37 C         -1.414172   -2.212541   -2.186925 C.3        1 UNL1     0.0236
     38 C         -0.830658   -0.735299   -2.408311 C.3        1 UNL1     0.1131
     39 C         0.733657   -0.511653   -2.480213 C.3        1 UNL1     0.0200
     40 C         1.747394   -1.279442   -1.400735 C.3        1 UNL1     0.0661
     41 C         1.563083   -1.311101   0.285277 C.3        1 UNL1     0.0091
     42 C         2.00444   -2.606947   1.506502 C.3        1 UNL1     0.0661
     43 C         -0.583036   -10.731444   3.33048 C.2        1 UNL1     0.2131
     44 O         -1.138014   -11.789381   3.566074 O.2        1 UNL1     -0.2851
     45 O         -0.445074   -12.476941   1.139798 O.3        1 UNL1     -0.5056
     46 O         0.716852   -6.119821   0.422838 O.2        1 UNL1     -0.2836
     47 C         4.381386   -3.807844   1.667088 C.3        1 UNL1     -0.0566
     48 O         2.667463   -1.663283   2.438712 O.3        1 UNL1     -0.3909
     49 C         0.171045   -0.832813   0.633076 C.3        1 UNL1     -0.0577
     50 O         2.101265   -2.564013   -1.872303 O.3        1 UNL1     -0.3910
     51 O         0.22553   -2.897873   -3.992445 O.3        1 UNL1     -0.3753
     52 C         -1.685273   -2.794118   -0.761015 C.3        1 UNL1     -0.0564
     53 O         -1.627533   0.334484   -1.720646 O.3        1 UNL1     -0.4608
     54 C         -2.8585   0.162096   -1.143643 C.2        1 UNL1     0.3042
     55 O         -3.320909   -0.87303   -0.665595 O.2        1 UNL1     -0.2512
     56 C         -3.667677   1.425282   -1.064228 C.3        1 UNL1     0.0332
     57 C         1.150564   -0.512988   -4.024351 C.3        1 UNL1     -0.0567
     58 C         -1.611838   -7.109312   -1.687894 C.3        1 UNL1     0.0210
     59 C         1.284781   -3.845855   -4.115661 C.3        1 UNL1     0.0372
     60 C         -0.419799   -4.576614   -2.516566 C.2        1 UNL1     -0.0208
     61 C         0.676814   -5.315072   -2.692247 C.2        1 UNL1     0.0882
     62 H         2.479946   -4.693764   1.238147 H        1 UNL1     0.0365
     63 H         2.550885   -6.4193   2.327974 H        1 UNL1     0.0576
     64 H         3.42975   -5.867427   5.229664 H        1 UNL1     0.0615
     65 H         2.485505   -8.450384   3.748249 H        1 UNL1     0.0622
     66 H         -1.691754   -3.568476   -3.814999 H        1 UNL1     0.0645
     67 H         -2.462322   -2.085033   -2.508925 H        1 UNL1     0.0362
     68 H         -1.200113   -0.542347   -3.427033 H        1 UNL1     0.0741
     69 H         0.944326   0.534179   -2.300595 H        1 UNL1     0.0359
     70 H         2.663631   -0.673271   -1.535373 H        1 UNL1     0.0600
     71 H         2.171611   -0.428149   0.562851 H        1 UNL1     0.0348
     72 H         2.594562   -2.826355   0.604875 H        1 UNL1     0.0602
     73 H         -1.214535   -4.941652   -1.914577 H        1 UNL1     0.0628
     74 H         1.558093   -4.988486   -3.245353 H        1 UNL1     0.1022
     75 H         2.940077   -8.173711   7.803055 H        1 UNL1     0.0279
     76 H         1.678187   -9.33976   7.838594 H        1 UNL1     0.0279
     77 H         3.407747   -9.809403   7.58689 H        1 UNL1     0.0279
     78 H         0.070741   -9.515848   6.310758 H        1 UNL1     0.1553
     79 H         -0.021341   -7.555725   6.035691 H        1 UNL1     0.1484
     80 H         -2.11802   -5.053628   4.090713 H        1 UNL1     0.0317
     81 H         -2.436609   -6.782176   4.067316 H        1 UNL1     0.0317
     82 H         -1.926331   -6.968313   6.516535 H        1 UNL1     0.0428
     83 H         -3.201899   -5.819756   6.176759 H        1 UNL1     0.0428
     84 H         0.671696   -4.208677   6.885858 H        1 UNL1     0.0428
     85 H         0.522165   -5.927463   6.997825 H        1 UNL1     0.0428
     86 H         1.443326   -5.008882   4.868853 H        1 UNL1     0.0317
     87 H         0.032004   -4.118182   4.526545 H        1 UNL1     0.0317
     88 H         -1.017524   -5.071954   8.717255 H        1 UNL1     0.0429
     89 H         -1.781025   -3.56216   8.213448 H        1 UNL1     0.0429
     90 H         -3.419952   -5.907676   7.470971 H        1 UNL1     0.0308
     91 H         -2.334518   -5.796077   10.297536 H        1 UNL1     0.0233
     92 H         -4.052545   -6.207893   10.064544 H        1 UNL1     0.0233
     93 H         -2.802017   -7.204661   9.352338 H        1 UNL1     0.0233
     94 H         -5.133896   -4.645949   8.781997 H        1 UNL1     0.0233
     95 H         -3.882859   -3.45464   9.169319 H        1 UNL1     0.0233
     96 H         -4.366874   -3.716592   7.47784 H        1 UNL1     0.0233
     97 H         0.495411   -11.622234   -2.278047 H        1 UNL1     0.0280
     98 H         -0.68609   -12.563845   -1.409363 H        1 UNL1     0.0280
     99 H         -1.192954   -11.079843   -2.26992 H        1 UNL1     0.0280
     100 H         -0.970664   -12.943081   0.513627 H        1 UNL1     0.2922
     101 H         4.377419   -3.131545   0.812536 H        1 UNL1     0.0236
     102 H         4.989283   -4.693439   1.484972 H        1 UNL1     0.0236
     103 H         4.9175   -3.256707   2.457672 H        1 UNL1     0.0236
     104 H         3.150731   -1.006856   1.899707 H        1 UNL1     0.2098
     105 H         -0.614086   -1.560749   0.44469 H        1 UNL1     0.0234
     106 H         0.069251   -0.4184   1.635985 H        1 UNL1     0.0234
     107 H         0.0   0.0   0.0 H        1 UNL1     0.0234
     108 H         2.494113   -3.050402   -1.12206 H        1 UNL1     0.2098
     109 H         -2.698225   -3.209811   -0.666995 H        1 UNL1     0.0234
     110 H         -0.950457   -3.547142   -0.456474 H        1 UNL1     0.0234
     111 H         -1.608922   -2.019229   0.013365 H        1 UNL1     0.0234
     112 H         -4.713805   1.212854   -1.30472 H        1 UNL1     0.0342
     113 H         -3.580444   1.907055   -0.091536 H        1 UNL1     0.0342
     114 H         -3.28437   2.126266   -1.818458 H        1 UNL1     0.0342
     115 H         1.994107   0.163224   -4.22021 H        1 UNL1     0.0234
     116 H         1.422631   -1.497566   -4.409881 H        1 UNL1     0.0234
     117 H         0.378434   -0.088498   -4.688854 H        1 UNL1     0.0234
     118 H         -1.850941   -6.064092   -1.95124 H        1 UNL1     0.0309
     119 H         -2.085778   -7.778694   -2.412814 H        1 UNL1     0.0309
     120 H         -2.144709   -7.259836   -0.742644 H        1 UNL1     0.0309
     121 H         1.726062   -3.977371   -3.128072 H        1 UNL1     0.0524
     122 H         0.926058   -4.832529   -4.453046 H        1 UNL1     0.0524
     123 H         2.033012   -3.484545   -4.815447 H        1 UNL1     0.0524
@<TRIPOS>BOND
     1     1     2    1
     2     1    42    1
     3     2     3    2
     4     3     4    1
     5     4     5    2
     6     5     7    1
     7     6    75    1
     8     6    76    1
     9     6    77    1
    10     7     9   am
    11     9    10    1
    12    10    11    2
    13    10    43    1
    14    11    14    1
    15    11    15    1
    16    12    13   ar
    17    12    27   ar
    18    12    43    1
    19    13    14    1
    20    13    30   ar
    21    14    17    2
    22    15    16    1
    23    16    17    1
    24    16    18    1
    25    16    22    1
    26    18    19    1
    27    19    20    1
    28    20    21    1
    29    21    22    1
    30    23    24    1
    31    23    88    1
    32    23    89    1
    33    24    25    1
    34    24    26    1
    35    24    90    1
    36    25    91    1
    37    25    92    1
    38    25    93    1
    39    26    94    1
    40    26    95    1
    41    26    96    1
    42    27    28   ar
    43    28    29   ar
    44    29    30   ar
    45    29    31    1
    46    30    33    1
    47    31    32    1
    48    32    33    1
    49    32    35    1
    50    34    97    1
    51    34    98    1
    52    34    99    1
    53    35    61    1
    54    36    37    1
    55    36    60    1
    56    37    38    1
    57    38    39    1
    58    39    40    1
    59    40    41    1
    60    41    42    1
    61    45   100    1
    62    47   101    1
    63    47   102    1
    64    47   103    1
    65    48   104    1
    66    49   105    1
    67    49   106    1
    68    49   107    1
    69    50   108    1
    70    51    59    1
    71    52   109    1
    72    52   110    1
    73    52   111    1
    74    53    54    1
    75    54    55    2
    76    54    56    1
    77    56   112    1
    78    56   113    1
    79    56   114    1
    80    57   115    1
    81    57   116    1
    82    57   117    1
    83    58   118    1
    84    58   119    1
    85    58   120    1
    86    59   121    1
    87    59   122    1
    88    59   123    1
    89    60    61    2
    90     1    47    1
    91     1    62    1
    92     2    63    1
    93     3    64    1
    94     4    65    1
    95     5     6    1
    96     7     8    2
    97     9    78    1
    98    15    79    1
    99    18    80    1
   100    18    81    1
   101    19    82    1
   102    19    83    1
   103    20    23    1
   104    21    84    1
   105    21    85    1
   106    22    86    1
   107    22    87    1
   108    27    45    1
   109    28    34    1
   110    32    58    1
   111    33    46    2
   112    36    51    1
   113    36    66    1
   114    37    52    1
   115    37    67    1
   116    38    53    1
   117    38    68    1
   118    42    48    1
   119    42    72    1
   120    43    44    2
   121    60    73    1
   122    61    74    1
   123    39    69    1
   124    39    57    1
   125    40    70    1
   126    40    50    1
   127    41    71    1
   128    41    49    1
