@<TRIPOS>MOLECULE
*****
 123 128 0 0 0
SMALL
GASTEIGER

@<TRIPOS>ATOM
     1 C         5.166792   1.758948   0.457857 C.3        1 UNL1     0.0009
     2 C         6.596226   2.568236   -0.401683 C.2        1 UNL1     -0.0787
     3 C         7.873879   2.472854   -1.075887 C.2        1 UNL1     -0.0649
     4 C         8.743854   3.710003   -1.836783 C.2        1 UNL1     -0.0542
     5 C         9.75708   4.005026   -2.781988 C.2        1 UNL1     0.0115
     6 C         10.880791   3.382152   -3.655271 C.3        1 UNL1     -0.0348
     7 C         9.845452   5.488689   -3.388556 C.2        1 UNL1     0.2441
     8 O         10.670165   6.311847   -3.016018 O.2        1 UNL1     -0.2702
     9 N         9.087113   5.694576   -4.554181 N.am        1 UNL1     -0.2772
     10 C         7.805725   6.078577   -4.231829 C.2        1 UNL1     0.1049
     11 C         6.963826   5.105369   -3.934685 C.2        1 UNL1     0.0801
     12 C         6.513459   7.682121   -2.811959 C.ar        1 UNL1     0.0753
     13 C         5.759625   6.552528   -2.359894 C.ar        1 UNL1     0.0305
     14 C         5.874905   5.247296   -3.006524 C.2        1 UNL1     0.0924
     15 N         7.088049   3.776696   -4.095075 N.pl3        1 UNL1     -0.3170
     16 C         5.821489   3.174875   -3.772754 C.3        1 UNL1     0.1275
     17 N         5.18966   4.128482   -2.788301 N.2        1 UNL1     -0.2557
     18 C         4.960208   3.232693   -5.030749 C.3        1 UNL1     0.0016
     19 C         5.708993   2.550518   -6.164569 C.3        1 UNL1     0.0026
     20 N         5.984427   1.172821   -5.781014 N.3        1 UNL1     -0.3018
     21 C         6.756262   1.013509   -4.546809 C.3        1 UNL1     0.0026
     22 C         5.98355   1.702067   -3.420444 C.3        1 UNL1     0.0016
     23 C         6.423241   0.354572   -6.893918 C.3        1 UNL1     0.0012
     24 C         5.261843   0.103139   -7.86844 C.3        1 UNL1     -0.0339
     25 C         5.327588   1.050134   -9.077958 C.3        1 UNL1     -0.0615
     26 C         5.249228   -1.353344   -8.29888 C.3        1 UNL1     -0.0615
     27 C         6.309831   8.949209   -2.270534 C.ar        1 UNL1     0.1347
     28 C         5.35659   9.216494   -1.304128 C.ar        1 UNL1     0.0342
     29 C         4.660349   8.080479   -0.839498 C.ar        1 UNL1     0.1435
     30 C         4.879013   6.799074   -1.346852 C.ar        1 UNL1     0.0774
     31 O         3.624787   8.191658   0.020883 O.3        1 UNL1     -0.4436
     32 C         2.904651   6.957448   -0.116967 C.3        1 UNL1     0.3143
     33 C         3.916396   5.966561   -0.656159 C.2        1 UNL1     0.2504
     34 C         4.909941   10.581545   -0.860009 C.3        1 UNL1     -0.0327
     35 O         2.553584   6.51956   1.201463 O.2        1 UNL1     -0.4528
     36 C         -0.688145   4.581032   0.825435 C.3        1 UNL1     0.0854
     37 C         -0.996849   3.320157   -0.070343 C.3        1 UNL1     0.0236
     38 C         -1.589669   2.057637   0.721081 C.3        1 UNL1     0.1131
     39 C         -0.854274   1.527697   2.017471 C.3        1 UNL1     0.0200
     40 C         0.807441   1.38546   2.047616 C.3        1 UNL1     0.0661
     41 C         1.760605   0.61896   0.872215 C.3        1 UNL1     0.0091
     42 C         3.463702   0.985129   0.297078 C.3        1 UNL1     0.0661
     43 C         7.45649   7.476712   -3.939238 C.2        1 UNL1     0.2131
     44 O         7.849824   8.375839   -4.660068 O.2        1 UNL1     -0.2851
     45 O         7.116983   9.986099   -2.734003 O.3        1 UNL1     -0.5056
     46 O         3.935652   4.763015   -0.525925 O.2        1 UNL1     -0.2836
     47 C         5.573503   1.329764   1.893256 C.3        1 UNL1     -0.0566
     48 O         3.915613   -0.425105   0.375391 O.3        1 UNL1     -0.3909
     49 C         0.91871   0.385133   -0.362303 C.3        1 UNL1     -0.0577
     50 O         1.407789   2.604383   2.436887 O.3        1 UNL1     -0.3910
     51 O         -0.802659   4.390628   2.217579 O.3        1 UNL1     -0.3753
     52 C         0.040287   3.162172   -1.229799 C.3        1 UNL1     -0.0564
     53 O         -2.196129   1.017762   -0.175129 O.3        1 UNL1     -0.4608
     54 C         -2.425681   -0.289573   0.165622 C.2        1 UNL1     0.3042
     55 O         -1.856468   -1.28731   -0.275238 O.2        1 UNL1     -0.2512
     56 C         -3.459777   -0.457782   1.24222 C.3        1 UNL1     0.0332
     57 C         -1.568286   2.194814   3.283692 C.3        1 UNL1     -0.0567
     58 C         1.821828   7.200763   -1.193918 C.3        1 UNL1     0.0210
     59 C         -1.11331   5.568751   2.960134 C.3        1 UNL1     0.0372
     60 C         0.63804   5.212849   0.586266 C.2        1 UNL1     -0.0208
     61 C         1.555832   5.649607   1.449775 C.2        1 UNL1     0.0882
     62 H         4.689497   2.742138   0.548618 H        1 UNL1     0.0365
     63 H         6.328579   3.621466   -0.294247 H        1 UNL1     0.0576
     64 H         8.33199   1.506996   -1.300297 H        1 UNL1     0.0615
     65 H         8.25725   4.624307   -1.486428 H        1 UNL1     0.0622
     66 H         -1.436317   5.326178   0.520406 H        1 UNL1     0.0645
     67 H         -1.867035   3.628002   -0.675791 H        1 UNL1     0.0362
     68 H         -2.535262   2.492501   1.079226 H        1 UNL1     0.0741
     69 H         -1.18248   0.515872   2.214703 H        1 UNL1     0.0359
     70 H         0.926358   0.725054   2.927834 H        1 UNL1     0.0600
     71 H         1.809045   -0.402261   1.298499 H        1 UNL1     0.0348
     72 H         3.363328   1.47279   1.277602 H        1 UNL1     0.0602
     73 H         0.748685   5.410684   -0.450974 H        1 UNL1     0.0628
     74 H         1.545781   5.438546   2.51963 H        1 UNL1     0.1022
     75 H         10.909738   2.273492   -3.524624 H        1 UNL1     0.0279
     76 H         10.77326   3.488372   -4.732408 H        1 UNL1     0.0279
     77 H         11.888344   3.666557   -3.318146 H        1 UNL1     0.0279
     78 H         9.023377   4.824682   -5.078872 H        1 UNL1     0.1553
     79 H         7.750073   3.350242   -4.717003 H        1 UNL1     0.1484
     80 H         4.001212   2.739777   -4.830433 H        1 UNL1     0.0317
     81 H         4.729746   4.269083   -5.299885 H        1 UNL1     0.0317
     82 H         6.636935   3.083759   -6.41852 H        1 UNL1     0.0428
     83 H         5.077847   2.604713   -7.052132 H        1 UNL1     0.0428
     84 H         6.880702   -0.029305   -4.238807 H        1 UNL1     0.0428
     85 H         7.784909   1.383631   -4.65731 H        1 UNL1     0.0428
     86 H         6.506466   1.45243   -2.515885 H        1 UNL1     0.0317
     87 H         5.005908   1.222435   -3.289045 H        1 UNL1     0.0317
     88 H         7.214717   0.898133   -7.426273 H        1 UNL1     0.0429
     89 H         6.860032   -0.590453   -6.54619 H        1 UNL1     0.0429
     90 H         4.312255   0.26932   -7.346061 H        1 UNL1     0.0308
     91 H         6.279317   0.951956   -9.608689 H        1 UNL1     0.0233
     92 H         4.507788   0.848533   -9.771422 H        1 UNL1     0.0233
     93 H         5.231647   2.10379   -8.789098 H        1 UNL1     0.0233
     94 H         4.5519   -1.495058   -9.131639 H        1 UNL1     0.0233
     95 H         6.245113   -1.651166   -8.6387 H        1 UNL1     0.0233
     96 H         4.945425   -2.009341   -7.478307 H        1 UNL1     0.0233
     97 H         4.115276   10.53006   -0.121708 H        1 UNL1     0.0280
     98 H         5.722277   11.149563   -0.388076 H        1 UNL1     0.0280
     99 H         4.538183   11.149016   -1.72884 H        1 UNL1     0.0280
     100 H         6.646562   10.740553   -3.042426 H        1 UNL1     0.2922
     101 H         4.71178   0.905644   2.408243 H        1 UNL1     0.0236
     102 H         6.037571   2.132459   2.465361 H        1 UNL1     0.0236
     103 H         6.322168   0.52004   1.886911 H        1 UNL1     0.0236
     104 H         4.335806   -0.55213   1.248473 H        1 UNL1     0.2098
     105 H         0.700482   1.283727   -0.933894 H        1 UNL1     0.0234
     106 H         1.285321   -0.401933   -1.021128 H        1 UNL1     0.0234
     107 H         0.0   -0.0   0.0 H        1 UNL1     0.0234
     108 H         1.218319   3.257834   1.736265 H        1 UNL1     0.2098
     109 H         1.069261   3.063014   -0.856849 H        1 UNL1     0.0234
     110 H         -0.188269   2.327231   -1.900902 H        1 UNL1     0.0234
     111 H         0.046571   4.039997   -1.889595 H        1 UNL1     0.0234
     112 H         -3.579349   -1.51896   1.480861 H        1 UNL1     0.0342
     113 H         -3.219683   0.118668   2.134355 H        1 UNL1     0.0342
     114 H         -4.420096   -0.089129   0.856153 H        1 UNL1     0.0342
     115 H         -2.639733   1.954556   3.321967 H        1 UNL1     0.0234
     116 H         -1.132585   1.906092   4.242261 H        1 UNL1     0.0234
     117 H         -1.598468   3.2972   3.241551 H        1 UNL1     0.0234
     118 H         0.921914   7.684321   -0.775191 H        1 UNL1     0.0309
     119 H         2.183989   7.791058   -2.041616 H        1 UNL1     0.0309
     120 H         1.433414   6.268207   -1.617687 H        1 UNL1     0.0309
     121 H         -0.277371   6.258767   2.848598 H        1 UNL1     0.0524
     122 H         -2.015754   6.076506   2.580901 H        1 UNL1     0.0524
     123 H         -1.260412   5.324473   4.008362 H        1 UNL1     0.0524
@<TRIPOS>BOND
     1     1     2    1
     2     1    42    1
     3     2     3    2
     4     3     4    1
     5     4     5    2
     6     5     7    1
     7     6    75    1
     8     6    76    1
     9     6    77    1
    10     7     9   am
    11     9    10    1
    12    10    11    2
    13    10    43    1
    14    11    14    1
    15    11    15    1
    16    12    13   ar
    17    12    27   ar
    18    12    43    1
    19    13    14    1
    20    13    30   ar
    21    14    17    2
    22    15    16    1
    23    16    17    1
    24    16    18    1
    25    16    22    1
    26    18    19    1
    27    19    20    1
    28    20    21    1
    29    21    22    1
    30    23    24    1
    31    23    88    1
    32    23    89    1
    33    24    25    1
    34    24    26    1
    35    24    90    1
    36    25    91    1
    37    25    92    1
    38    25    93    1
    39    26    94    1
    40    26    95    1
    41    26    96    1
    42    27    28   ar
    43    28    29   ar
    44    29    30   ar
    45    29    31    1
    46    30    33    1
    47    31    32    1
    48    32    33    1
    49    32    35    1
    50    34    97    1
    51    34    98    1
    52    34    99    1
    53    35    61    1
    54    36    37    1
    55    36    60    1
    56    37    38    1
    57    38    39    1
    58    39    40    1
    59    40    41    1
    60    41    42    1
    61    45   100    1
    62    47   101    1
    63    47   102    1
    64    47   103    1
    65    48   104    1
    66    49   105    1
    67    49   106    1
    68    49   107    1
    69    50   108    1
    70    51    59    1
    71    52   109    1
    72    52   110    1
    73    52   111    1
    74    53    54    1
    75    54    55    2
    76    54    56    1
    77    56   112    1
    78    56   113    1
    79    56   114    1
    80    57   115    1
    81    57   116    1
    82    57   117    1
    83    58   118    1
    84    58   119    1
    85    58   120    1
    86    59   121    1
    87    59   122    1
    88    59   123    1
    89    60    61    2
    90     1    47    1
    91     1    62    1
    92     2    63    1
    93     3    64    1
    94     4    65    1
    95     5     6    1
    96     7     8    2
    97     9    78    1
    98    15    79    1
    99    18    80    1
   100    18    81    1
   101    19    82    1
   102    19    83    1
   103    20    23    1
   104    21    84    1
   105    21    85    1
   106    22    86    1
   107    22    87    1
   108    27    45    1
   109    28    34    1
   110    32    58    1
   111    33    46    2
   112    36    51    1
   113    36    66    1
   114    37    52    1
   115    37    67    1
   116    38    53    1
   117    38    68    1
   118    42    48    1
   119    42    72    1
   120    43    44    2
   121    60    73    1
   122    61    74    1
   123    39    69    1
   124    39    57    1
   125    40    70    1
   126    40    50    1
   127    41    71    1
   128    41    49    1
