@<TRIPOS>MOLECULE
*****
 123 128 0 0 0
SMALL
GASTEIGER

@<TRIPOS>ATOM
     1 C         0.208787   2.178418   -3.580027 C.3        1 UNL1     0.0009
     2 C         -0.532555   3.841079   -3.930752 C.2        1 UNL1     -0.0787
     3 C         -1.562566   4.65305   -4.543798 C.2        1 UNL1     -0.0649
     4 C         -1.795534   6.323561   -4.397248 C.2        1 UNL1     -0.0542
     5 C         -2.7262   7.382643   -4.536114 C.2        1 UNL1     0.0115
     6 C         -4.134542   7.755257   -5.075609 C.3        1 UNL1     -0.0348
     7 C         -2.424694   8.782037   -3.809629 C.2        1 UNL1     0.2441
     8 O         -2.00016   9.762882   -4.404809 O.2        1 UNL1     -0.2702
     9 N         -2.925489   8.885796   -2.500206 N.am        1 UNL1     -0.2772
     10 C         -2.007257   8.404703   -1.595373 C.2        1 UNL1     0.1049
     11 C         -1.996092   7.096111   -1.417368 C.2        1 UNL1     0.0801
     12 C         0.404508   8.552088   -0.94807 C.ar        1 UNL1     0.0753
     13 C         0.417688   7.121072   -0.973091 C.ar        1 UNL1     0.0305
     14 C         -0.816528   6.346274   -1.080101 C.2        1 UNL1     0.0924
     15 N         -2.875914   6.162313   -1.817945 N.pl3        1 UNL1     -0.3170
     16 C         -2.49171   4.911314   -1.219912 C.3        1 UNL1     0.1275
     17 N         -1.000607   5.030456   -1.019559 N.2        1 UNL1     -0.2557
     18 C         -3.104722   4.870588   0.176605 C.3        1 UNL1     0.0016
     19 C         -4.606623   5.073032   0.054547 C.3        1 UNL1     0.0026
     20 N         -5.153669   4.019162   -0.788735 N.3        1 UNL1     -0.3018
     21 C         -4.580602   3.938903   -2.13392 C.3        1 UNL1     0.0026
     22 C         -3.072236   3.730881   -1.987451 C.3        1 UNL1     0.0016
     23 C         -6.599666   3.941613   -0.727722 C.3        1 UNL1     0.0012
     24 C         -7.233958   4.898305   -1.749569 C.3        1 UNL1     -0.0339
     25 C         -8.451708   4.259574   -2.43744 C.3        1 UNL1     -0.0615
     26 C         -7.596225   6.211673   -1.078297 C.3        1 UNL1     -0.0615
     27 C         1.570359   9.280808   -0.724735 C.ar        1 UNL1     0.1347
     28 C         2.796823   8.691281   -0.475146 C.ar        1 UNL1     0.0342
     29 C         2.79514   7.282354   -0.553151 C.ar        1 UNL1     0.1435
     30 C         1.642076   6.540227   -0.811821 C.ar        1 UNL1     0.0774
     31 O         3.887168   6.55715   -0.226715 O.3        1 UNL1     -0.4436
     32 C         3.382813   5.237958   0.030636 C.3        1 UNL1     0.3143
     33 C         2.072314   5.160254   -0.726179 C.2        1 UNL1     0.2504
     34 C         4.029661   9.39594   0.018481 C.3        1 UNL1     -0.0327
     35 O         4.27978   4.310017   -0.591962 O.2        1 UNL1     -0.4528
     36 C         4.135197   1.152828   1.51026 C.3        1 UNL1     0.0854
     37 C         2.88955   0.259917   1.882546 C.3        1 UNL1     0.0236
     38 C         3.031172   -1.290977   1.499905 C.3        1 UNL1     0.1131
     39 C         3.466132   -1.701825   0.035568 C.3        1 UNL1     0.0200
     40 C         2.807348   -0.931169   -1.289019 C.3        1 UNL1     0.0661
     41 C         1.154103   -0.673139   -1.567969 C.3        1 UNL1     0.0091
     42 C         0.29199   0.701769   -2.423417 C.3        1 UNL1     0.0661
     43 C         -0.907546   9.233033   -1.078789 C.2        1 UNL1     0.2131
     44 O         -1.117586   10.369022   -0.693887 O.2        1 UNL1     -0.2851
     45 O         1.479362   10.670701   -0.76152 O.3        1 UNL1     -0.5056
     46 O         1.519112   4.182001   -1.176559 O.2        1 UNL1     -0.2836
     47 C         0.923374   1.629116   -4.843995 C.3        1 UNL1     -0.0566
     48 O         -0.569215   -0.191837   -3.23515 O.3        1 UNL1     -0.3909
     49 C         0.395523   -0.940601   -0.287144 C.3        1 UNL1     -0.0577
     50 O         3.538583   0.236535   -1.604433 O.3        1 UNL1     -0.3910
     51 O         5.1348   0.525106   0.739423 O.3        1 UNL1     -0.3753
     52 C         1.544137   1.038407   1.71294 C.3        1 UNL1     -0.0564
     53 O         2.012188   -2.169191   2.165291 O.3        1 UNL1     -0.4608
     54 C         1.402234   -3.254358   1.592317 C.2        1 UNL1     0.3042
     55 O         1.043172   -3.377754   0.421981 O.2        1 UNL1     -0.2512
     56 C         1.228488   -4.412764   2.532859 C.3        1 UNL1     0.0332
     57 C         5.048099   -1.937052   0.050477 C.3        1 UNL1     -0.0567
     58 C         3.087834   5.170589   1.547204 C.3        1 UNL1     0.0210
     59 C         6.339813   0.231587   1.444871 C.3        1 UNL1     0.0372
     60 C         3.808663   2.434649   0.828005 C.2        1 UNL1     -0.0208
     61 C         4.365917   3.013841   -0.236302 C.2        1 UNL1     0.0882
     62 H         0.978991   2.670912   -2.974265 H        1 UNL1     0.0365
     63 H         0.211512   4.49638   -3.473135 H        1 UNL1     0.0576
     64 H         -2.418247   4.203874   -5.052875 H        1 UNL1     0.0615
     65 H         -0.861221   6.679127   -3.954398 H        1 UNL1     0.0622
     66 H         4.575105   1.430376   2.478503 H        1 UNL1     0.0645
     67 H         2.910695   0.216696   2.985381 H        1 UNL1     0.0362
     68 H         3.881578   -1.5624   2.143847 H        1 UNL1     0.0741
     69 H         3.193347   -2.735314   -0.131455 H        1 UNL1     0.0359
     70 H         3.080103   -1.65148   -2.083888 H        1 UNL1     0.0600
     71 H         0.913442   -1.580332   -2.156222 H        1 UNL1     0.0348
     72 H         1.336616   0.739675   -2.764936 H        1 UNL1     0.0602
     73 H         3.084677   2.960101   1.399837 H        1 UNL1     0.0628
     74 H         5.070992   2.522199   -0.907417 H        1 UNL1     0.1022
     75 H         -4.082932   8.013443   -6.160832 H        1 UNL1     0.0279
     76 H         -4.884883   6.968027   -5.057527 H        1 UNL1     0.0279
     77 H         -4.519517   8.692545   -4.64784 H        1 UNL1     0.0279
     78 H         -3.768203   8.321983   -2.410625 H        1 UNL1     0.1553
     79 H         -3.819331   6.366998   -2.091808 H        1 UNL1     0.1484
     80 H         -2.867081   3.907061   0.643412 H        1 UNL1     0.0317
     81 H         -2.669953   5.645093   0.817519 H        1 UNL1     0.0317
     82 H         -4.852163   6.067738   -0.345682 H        1 UNL1     0.0428
     83 H         -5.023384   5.042272   1.061729 H        1 UNL1     0.0428
     84 H         -4.950592   3.09081   -2.718435 H        1 UNL1     0.0428
     85 H         -4.841078   4.816083   -2.742217 H        1 UNL1     0.0428
     86 H         -2.707895   3.544257   -2.980636 H        1 UNL1     0.0317
     87 H         -2.873152   2.788423   -1.462823 H        1 UNL1     0.0317
     88 H         -6.897513   2.915072   -0.978313 H        1 UNL1     0.0429
     89 H         -6.967462   4.144748   0.286298 H        1 UNL1     0.0429
     90 H         -6.491279   5.148691   -2.516346 H        1 UNL1     0.0308
     91 H         -9.279101   4.122815   -1.734716 H        1 UNL1     0.0233
     92 H         -8.789851   4.875406   -3.274112 H        1 UNL1     0.0233
     93 H         -8.22411   3.272125   -2.85694 H        1 UNL1     0.0233
     94 H         -8.376746   6.04924   -0.327139 H        1 UNL1     0.0233
     95 H         -6.720626   6.625744   -0.570524 H        1 UNL1     0.0233
     96 H         -7.962095   6.943232   -1.804196 H        1 UNL1     0.0233
     97 H         4.461054   10.04201   -0.740284 H        1 UNL1     0.0280
     98 H         3.819457   10.04304   0.880068 H        1 UNL1     0.0280
     99 H         4.788323   8.651437   0.310445 H        1 UNL1     0.0280
     100 H         1.258447   11.070511   0.061263 H        1 UNL1     0.2922
     101 H         1.634143   0.854434   -4.557061 H        1 UNL1     0.0236
     102 H         1.389006   2.408699   -5.44601 H        1 UNL1     0.0236
     103 H         0.222197   1.125352   -5.530118 H        1 UNL1     0.0236
     104 H         -0.958155   0.345432   -3.952811 H        1 UNL1     0.2098
     105 H         -0.436038   -1.632652   -0.393835 H        1 UNL1     0.0234
     106 H         1.018798   -1.226697   0.559971 H        1 UNL1     0.0234
     107 H         0.0   0.0   0.0 H        1 UNL1     0.0234
     108 H         4.415256   0.15271   -1.182312 H        1 UNL1     0.2098
     109 H         1.491138   1.923705   2.361901 H        1 UNL1     0.0234
     110 H         1.344017   1.331243   0.676628 H        1 UNL1     0.0234
     111 H         0.680248   0.417745   1.98574 H        1 UNL1     0.0234
     112 H         0.881511   -4.053003   3.506268 H        1 UNL1     0.0342
     113 H         0.553861   -5.167919   2.132279 H        1 UNL1     0.0342
     114 H         2.20913   -4.886259   2.678834 H        1 UNL1     0.0342
     115 H         5.397463   -2.422824   -0.871021 H        1 UNL1     0.0234
     116 H         5.631533   -1.023569   0.181633 H        1 UNL1     0.0234
     117 H         5.377597   -2.663979   0.812678 H        1 UNL1     0.0234
     118 H         3.836591   5.724405   2.14021 H        1 UNL1     0.0309
     119 H         2.087438   5.531218   1.806737 H        1 UNL1     0.0309
     120 H         3.155138   4.151572   1.943665 H        1 UNL1     0.0309
     121 H         7.158914   0.716119   0.914155 H        1 UNL1     0.0524
     122 H         6.329734   0.62879   2.473543 H        1 UNL1     0.0524
     123 H         6.500991   -0.842032   1.48304 H        1 UNL1     0.0524
@<TRIPOS>BOND
     1     1     2    1
     2     1    42    1
     3     2     3    2
     4     3     4    1
     5     4     5    2
     6     5     7    1
     7     6    75    1
     8     6    76    1
     9     6    77    1
    10     7     9   am
    11     9    10    1
    12    10    11    2
    13    10    43    1
    14    11    14    1
    15    11    15    1
    16    12    13   ar
    17    12    27   ar
    18    12    43    1
    19    13    14    1
    20    13    30   ar
    21    14    17    2
    22    15    16    1
    23    16    17    1
    24    16    18    1
    25    16    22    1
    26    18    19    1
    27    19    20    1
    28    20    21    1
    29    21    22    1
    30    23    24    1
    31    23    88    1
    32    23    89    1
    33    24    25    1
    34    24    26    1
    35    24    90    1
    36    25    91    1
    37    25    92    1
    38    25    93    1
    39    26    94    1
    40    26    95    1
    41    26    96    1
    42    27    28   ar
    43    28    29   ar
    44    29    30   ar
    45    29    31    1
    46    30    33    1
    47    31    32    1
    48    32    33    1
    49    32    35    1
    50    34    97    1
    51    34    98    1
    52    34    99    1
    53    35    61    1
    54    36    37    1
    55    36    60    1
    56    37    38    1
    57    38    39    1
    58    39    40    1
    59    40    41    1
    60    41    42    1
    61    45   100    1
    62    47   101    1
    63    47   102    1
    64    47   103    1
    65    48   104    1
    66    49   105    1
    67    49   106    1
    68    49   107    1
    69    50   108    1
    70    51    59    1
    71    52   109    1
    72    52   110    1
    73    52   111    1
    74    53    54    1
    75    54    55    2
    76    54    56    1
    77    56   112    1
    78    56   113    1
    79    56   114    1
    80    57   115    1
    81    57   116    1
    82    57   117    1
    83    58   118    1
    84    58   119    1
    85    58   120    1
    86    59   121    1
    87    59   122    1
    88    59   123    1
    89    60    61    2
    90     1    47    1
    91     1    62    1
    92     2    63    1
    93     3    64    1
    94     4    65    1
    95     5     6    1
    96     7     8    2
    97     9    78    1
    98    15    79    1
    99    18    80    1
   100    18    81    1
   101    19    82    1
   102    19    83    1
   103    20    23    1
   104    21    84    1
   105    21    85    1
   106    22    86    1
   107    22    87    1
   108    27    45    1
   109    28    34    1
   110    32    58    1
   111    33    46    2
   112    36    51    1
   113    36    66    1
   114    37    52    1
   115    37    67    1
   116    38    53    1
   117    38    68    1
   118    42    48    1
   119    42    72    1
   120    43    44    2
   121    60    73    1
   122    61    74    1
   123    39    69    1
   124    39    57    1
   125    40    70    1
   126    40    50    1
   127    41    71    1
   128    41    49    1
