@<TRIPOS>MOLECULE
*****
 123 128 0 0 0
SMALL
GASTEIGER

@<TRIPOS>ATOM
     1 C         5.154735   1.79011   0.472739 C.3        1 UNL1     0.0009
     2 C         6.592878   2.578333   -0.391834 C.2        1 UNL1     -0.0787
     3 C         7.879638   2.467313   -1.046028 C.2        1 UNL1     -0.0649
     4 C         8.755727   3.684182   -1.832194 C.2        1 UNL1     -0.0542
     5 C         9.780447   3.954338   -2.772428 C.2        1 UNL1     0.0115
     6 C         10.91757   3.30956   -3.611794 C.3        1 UNL1     -0.0348
     7 C         9.872188   5.41947   -3.422014 C.2        1 UNL1     0.2441
     8 O         10.689312   6.256325   -3.063531 O.2        1 UNL1     -0.2702
     9 N         9.128706   5.587672   -4.603154 N.am        1 UNL1     -0.2772
     10 C         7.841965   5.976628   -4.30933 C.2        1 UNL1     0.1049
     11 C         6.999262   5.00979   -3.994215 C.2        1 UNL1     0.0801
     12 C         6.525991   7.617406   -2.955301 C.ar        1 UNL1     0.0753
     13 C         5.769784   6.499206   -2.4795 C.ar        1 UNL1     0.0305
     14 C         5.897708   5.175606   -3.085117 C.2        1 UNL1     0.0924
     15 N         7.129764   3.677356   -4.113032 N.pl3        1 UNL1     -0.3170
     16 C         5.860942   3.080989   -3.789473 C.3        1 UNL1     0.1275
     17 N         5.213146   4.061417   -2.842454 N.2        1 UNL1     -0.2557
     18 C         5.016214   3.09806   -5.059845 C.3        1 UNL1     0.0016
     19 C         5.78208   2.384879   -6.162756 C.3        1 UNL1     0.0026
     20 N         6.056732   1.02027   -5.734461 N.3        1 UNL1     -0.3018
     21 C         6.812654   0.900723   -4.485999 C.3        1 UNL1     0.0026
     22 C         6.022942   1.619976   -3.391045 C.3        1 UNL1     0.0016
     23 C         6.512805   0.17061   -6.816459 C.3        1 UNL1     0.0012
     24 C         5.365206   -0.114001   -7.798176 C.3        1 UNL1     -0.0339
     25 C         5.393342   0.854359   -8.992138 C.3        1 UNL1     -0.0615
     26 C         5.415272   -1.562562   -8.251987 C.3        1 UNL1     -0.0615
     27 C         6.311239   8.899416   -2.45485 C.ar        1 UNL1     0.1347
     28 C         5.344453   9.192159   -1.509505 C.ar        1 UNL1     0.0342
     29 C         4.645688   8.068118   -1.020197 C.ar        1 UNL1     0.1435
     30 C         4.875069   6.772872   -1.485968 C.ar        1 UNL1     0.0774
     31 O         3.598483   8.201359   -0.177218 O.3        1 UNL1     -0.4436
     32 C         2.88411   6.961038   -0.287436 C.3        1 UNL1     0.3143
     33 C         3.906008   5.958025   -0.783321 C.2        1 UNL1     0.2504
     34 C         4.887685   10.568313   -1.112439 C.3        1 UNL1     -0.0327
     35 O         2.516993   6.5616   1.03881 O.2        1 UNL1     -0.4528
     36 C         -0.713377   4.601241   0.678538 C.3        1 UNL1     0.0854
     37 C         -1.006239   3.313019   -0.182995 C.3        1 UNL1     0.0236
     38 C         -1.605522   2.072684   0.638086 C.3        1 UNL1     0.1131
     39 C         -0.885696   1.584412   1.95934 C.3        1 UNL1     0.0200
     40 C         0.775912   1.449011   2.015569 C.3        1 UNL1     0.0661
     41 C         1.746953   0.651021   0.876314 C.3        1 UNL1     0.0091
     42 C         3.456359   1.005812   0.31288 C.3        1 UNL1     0.0661
     43 C         7.484503   7.381657   -4.063424 C.2        1 UNL1     0.2131
     44 O         7.884525   8.260174   -4.805669 O.2        1 UNL1     -0.2851
     45 O         7.1212   9.924803   -2.938567 O.3        1 UNL1     -0.5056
     46 O         3.927312   4.758996   -0.616803 O.2        1 UNL1     -0.2836
     47 C         5.543751   1.405551   1.925585 C.3        1 UNL1     -0.0566
     48 O         3.911614   -0.399838   0.43939 O.3        1 UNL1     -0.3909
     49 C         0.922214   0.377351   -0.36159 C.3        1 UNL1     -0.0577
     50 O         1.367228   2.68116   2.375956 O.3        1 UNL1     -0.3910
     51 O         -0.845714   4.452217   2.074141 O.3        1 UNL1     -0.3753
     52 C         0.046647   3.124041   -1.323463 C.3        1 UNL1     -0.0564
     53 O         -2.196799   1.004297   -0.23442 O.3        1 UNL1     -0.4608
     54 C         -2.414592   -0.29635   0.138158 C.2        1 UNL1     0.3042
     55 O         -1.834245   -1.299085   -0.276038 O.2        1 UNL1     -0.2512
     56 C         -3.450364   -0.4479   1.215619 C.3        1 UNL1     0.0332
     57 C         -1.618498   2.28663   3.195489 C.3        1 UNL1     -0.0567
     58 C         1.814882   7.168161   -1.385334 C.3        1 UNL1     0.0210
     59 C         -1.200727   5.644312   2.773242 C.3        1 UNL1     0.0372
     60 C         0.61387   5.230291   0.43797 C.2        1 UNL1     -0.0208
     61 C         1.518774   5.695955   1.299974 C.2        1 UNL1     0.0882
     62 H         4.673199   2.773886   0.527688 H        1 UNL1     0.0365
     63 H         6.32053   3.633356   -0.319565 H        1 UNL1     0.0576
     64 H         8.343707   1.496791   -1.235326 H        1 UNL1     0.0615
     65 H         8.261661   4.606845   -1.515847 H        1 UNL1     0.0622
     66 H         -1.459779   5.334269   0.34149 H        1 UNL1     0.0645
     67 H         -1.869294   3.599516   -0.808786 H        1 UNL1     0.0362
     68 H         -2.557133   2.514738   0.97057 H        1 UNL1     0.0741
     69 H         -1.21331   0.577797   2.182504 H        1 UNL1     0.0359
     70 H         0.885235   0.815691   2.916687 H        1 UNL1     0.0600
     71 H         1.792948   -0.356796   1.333638 H        1 UNL1     0.0348
     72 H         3.341483   1.522266   1.276932 H        1 UNL1     0.0602
     73 H         0.737617   5.397359   -0.603194 H        1 UNL1     0.0628
     74 H         1.495223   5.517   2.375454 H        1 UNL1     0.1022
     75 H         10.966711   2.209554   -3.425765 H        1 UNL1     0.0279
     76 H         10.810662   3.35974   -4.693054 H        1 UNL1     0.0279
     77 H         11.918881   3.629162   -3.287863 H        1 UNL1     0.0279
     78 H         9.07465   4.702234   -5.102307 H        1 UNL1     0.1553
     79 H         7.801298   3.234806   -4.713135 H        1 UNL1     0.1484
     80 H         4.056201   2.60798   -4.857451 H        1 UNL1     0.0317
     81 H         4.786086   4.125103   -5.362952 H        1 UNL1     0.0317
     82 H         6.711626   2.913549   -6.420372 H        1 UNL1     0.0428
     83 H         5.162574   2.410236   -7.059761 H        1 UNL1     0.0428
     84 H         6.936277   -0.131951   -4.145246 H        1 UNL1     0.0428
     85 H         7.841509   1.271   -4.594027 H        1 UNL1     0.0428
     86 H         6.534618   1.399393   -2.472612 H        1 UNL1     0.0317
     87 H         5.045155   1.141045   -3.258175 H        1 UNL1     0.0317
     88 H         7.309552   0.700773   -7.354433 H        1 UNL1     0.0429
     89 H         6.947917   -0.762028   -6.43483 H        1 UNL1     0.0429
     90 H         4.408307   0.003347   -7.275885 H        1 UNL1     0.0308
     91 H         6.346054   0.79844   -9.527223 H        1 UNL1     0.0233
     92 H         4.578692   0.635374   -9.686399 H        1 UNL1     0.0233
     93 H         5.261435   1.899122   -8.685698 H        1 UNL1     0.0233
     94 H         4.725217   -1.72056   -9.087867 H        1 UNL1     0.0233
     95 H         6.423228   -1.81196   -8.595189 H        1 UNL1     0.0233
     96 H         5.139287   -2.244103   -7.442479 H        1 UNL1     0.0233
     97 H         4.089729   10.53626   -0.376593 H        1 UNL1     0.0280
     98 H         5.694376   11.156325   -0.655549 H        1 UNL1     0.0280
     99 H         4.516882   11.104812   -2.001129 H        1 UNL1     0.0280
     100 H         6.652469   10.662741   -3.286937 H        1 UNL1     0.2922
     101 H         4.679849   0.982484   2.437782 H        1 UNL1     0.0236
     102 H         5.986545   2.230096   2.483296 H        1 UNL1     0.0236
     103 H         6.304103   0.607243   1.953199 H        1 UNL1     0.0236
     104 H         4.325995   -0.497638   1.318988 H        1 UNL1     0.2098
     105 H         0.708755   1.257645   -0.962696 H        1 UNL1     0.0234
     106 H         1.299982   -0.427795   -0.991635 H        1 UNL1     0.0234
     107 H         0.0   -0.0   0.0 H        1 UNL1     0.0234
     108 H         1.169897   3.317493   1.661877 H        1 UNL1     0.2098
     109 H         1.069511   3.027352   -0.933448 H        1 UNL1     0.0234
     110 H         -0.17704   2.275935   -1.979529 H        1 UNL1     0.0234
     111 H         0.067626   3.987214   -2.002019 H        1 UNL1     0.0234
     112 H         -3.571711   -1.505431   1.469095 H        1 UNL1     0.0342
     113 H         -3.210678   0.140797   2.099831 H        1 UNL1     0.0342
     114 H         -4.409656   -0.083452   0.823063 H        1 UNL1     0.0342
     115 H         -2.681587   2.014191   3.248467 H        1 UNL1     0.0234
     116 H         -1.171985   2.057053   4.165009 H        1 UNL1     0.0234
     117 H         -1.684218   3.384315   3.102165 H        1 UNL1     0.0234
     118 H         0.908608   7.662265   -0.993498 H        1 UNL1     0.0309
     119 H         2.18682   7.73276   -2.246202 H        1 UNL1     0.0309
     120 H         1.433927   6.221955   -1.784925 H        1 UNL1     0.0309
     121 H         -0.399336   6.366799   2.621115 H        1 UNL1     0.0524
     122 H         -2.130826   6.094145   2.38775 H        1 UNL1     0.0524
     123 H         -1.322159   5.436744   3.832611 H        1 UNL1     0.0524
@<TRIPOS>BOND
     1     1     2    1
     2     1    42    1
     3     2     3    2
     4     3     4    1
     5     4     5    2
     6     5     7    1
     7     6    75    1
     8     6    76    1
     9     6    77    1
    10     7     9   am
    11     9    10    1
    12    10    11    2
    13    10    43    1
    14    11    14    1
    15    11    15    1
    16    12    13   ar
    17    12    27   ar
    18    12    43    1
    19    13    14    1
    20    13    30   ar
    21    14    17    2
    22    15    16    1
    23    16    17    1
    24    16    18    1
    25    16    22    1
    26    18    19    1
    27    19    20    1
    28    20    21    1
    29    21    22    1
    30    23    24    1
    31    23    88    1
    32    23    89    1
    33    24    25    1
    34    24    26    1
    35    24    90    1
    36    25    91    1
    37    25    92    1
    38    25    93    1
    39    26    94    1
    40    26    95    1
    41    26    96    1
    42    27    28   ar
    43    28    29   ar
    44    29    30   ar
    45    29    31    1
    46    30    33    1
    47    31    32    1
    48    32    33    1
    49    32    35    1
    50    34    97    1
    51    34    98    1
    52    34    99    1
    53    35    61    1
    54    36    37    1
    55    36    60    1
    56    37    38    1
    57    38    39    1
    58    39    40    1
    59    40    41    1
    60    41    42    1
    61    45   100    1
    62    47   101    1
    63    47   102    1
    64    47   103    1
    65    48   104    1
    66    49   105    1
    67    49   106    1
    68    49   107    1
    69    50   108    1
    70    51    59    1
    71    52   109    1
    72    52   110    1
    73    52   111    1
    74    53    54    1
    75    54    55    2
    76    54    56    1
    77    56   112    1
    78    56   113    1
    79    56   114    1
    80    57   115    1
    81    57   116    1
    82    57   117    1
    83    58   118    1
    84    58   119    1
    85    58   120    1
    86    59   121    1
    87    59   122    1
    88    59   123    1
    89    60    61    2
    90     1    47    1
    91     1    62    1
    92     2    63    1
    93     3    64    1
    94     4    65    1
    95     5     6    1
    96     7     8    2
    97     9    78    1
    98    15    79    1
    99    18    80    1
   100    18    81    1
   101    19    82    1
   102    19    83    1
   103    20    23    1
   104    21    84    1
   105    21    85    1
   106    22    86    1
   107    22    87    1
   108    27    45    1
   109    28    34    1
   110    32    58    1
   111    33    46    2
   112    36    51    1
   113    36    66    1
   114    37    52    1
   115    37    67    1
   116    38    53    1
   117    38    68    1
   118    42    48    1
   119    42    72    1
   120    43    44    2
   121    60    73    1
   122    61    74    1
   123    39    69    1
   124    39    57    1
   125    40    70    1
   126    40    50    1
   127    41    71    1
   128    41    49    1
