@<TRIPOS>MOLECULE
*****
 123 128 0 0 0
SMALL
GASTEIGER

@<TRIPOS>ATOM
     1 C         4.787035   -0.877538   -2.515149 C.3        1 UNL1     0.0009
     2 C         5.707474   -0.823975   -4.123551 C.2        1 UNL1     -0.0787
     3 C         6.263195   -1.501714   -5.275893 C.2        1 UNL1     -0.0649
     4 C         6.98424   -0.80974   -6.642503 C.2        1 UNL1     -0.0542
     5 C         7.347699   -1.020008   -7.995559 C.2        1 UNL1     0.0115
     6 C         7.476428   -2.094979   -9.109647 C.3        1 UNL1     -0.0348
     7 C         7.662803   0.252497   -8.922074 C.2        1 UNL1     0.2441
     8 O         8.799666   0.602337   -9.207874 O.2        1 UNL1     -0.2702
     9 N         6.547787   0.78158   -9.595098 N.am        1 UNL1     -0.2772
     10 C         5.911794   1.71571   -8.810091 C.2        1 UNL1     0.1049
     11 C         5.064447   1.243141   -7.914043 C.2        1 UNL1     0.0801
     12 C         6.331742   3.740079   -7.401934 C.ar        1 UNL1     0.0753
     13 C         5.573016   3.088677   -6.377913 C.ar        1 UNL1     0.0305
     14 C         4.804705   1.875779   -6.649258 C.2        1 UNL1     0.0924
     15 N         4.555543   0.007044   -7.774013 N.pl3        1 UNL1     -0.3170
     16 C         3.548168   0.060221   -6.748039 C.3        1 UNL1     0.1275
     17 N         3.975558   1.201391   -5.85765 N.2        1 UNL1     -0.2557
     18 C         2.248967   0.50529   -7.412638 C.3        1 UNL1     0.0016
     19 C         1.933944   -0.449818   -8.552865 C.3        1 UNL1     0.0026
     20 N         1.812015   -1.797378   -8.014124 N.3        1 UNL1     -0.3018
     21 C         2.99212   -2.291162   -7.301455 C.3        1 UNL1     0.0026
     22 C         3.287707   -1.319357   -6.157725 C.3        1 UNL1     0.0016
     23 C         1.22359   -2.729734   -8.954929 C.3        1 UNL1     0.0012
     24 C         -0.265515   -2.414016   -9.166219 C.3        1 UNL1     -0.0339
     25 C         -0.568347   -2.090256   -10.638473 C.3        1 UNL1     -0.0615
     26 C         -1.118649   -3.564027   -8.659842 C.3        1 UNL1     -0.0615
     27 C         6.962519   4.959636   -7.167586 C.ar        1 UNL1     0.1347
     28 C         6.873498   5.640823   -5.966707 C.ar        1 UNL1     0.0342
     29 C         6.162128   4.957139   -4.957899 C.ar        1 UNL1     0.1435
     30 C         5.555389   3.718056   -5.167093 C.ar        1 UNL1     0.0774
     31 O         5.893877   5.537601   -3.767895 O.3        1 UNL1     -0.4436
     32 C         4.802138   4.775769   -3.230689 C.3        1 UNL1     0.3143
     33 C         4.884225   3.427448   -3.917352 C.2        1 UNL1     0.2504
     34 C         7.308097   7.059267   -5.723315 C.3        1 UNL1     -0.0327
     35 O         5.079537   4.554505   -1.842401 O.2        1 UNL1     -0.4528
     36 C         1.700043   4.33331   -0.128288 C.3        1 UNL1     0.0854
     37 C         0.49763   3.354909   -0.418904 C.3        1 UNL1     0.0236
     38 C         -0.009496   2.512392   0.847876 C.3        1 UNL1     0.1131
     39 C         1.033046   1.707054   1.72355 C.3        1 UNL1     0.0200
     40 C         2.237134   0.812673   0.993692 C.3        1 UNL1     0.0661
     41 C         2.019892   -0.311853   -0.25765 C.3        1 UNL1     0.0091
     42 C         3.126268   -0.776724   -1.645177 C.3        1 UNL1     0.0661
     43 C         6.35051   3.117908   -8.749083 C.2        1 UNL1     0.2131
     44 O         6.605441   3.730708   -9.769977 O.2        1 UNL1     -0.2851
     45 O         7.719024   5.504148   -8.203271 O.3        1 UNL1     -0.5056
     46 O         4.501828   2.351861   -3.513942 O.2        1 UNL1     -0.2836
     47 C         5.697643   -1.441065   -1.391222 C.3        1 UNL1     -0.0566
     48 O         2.959373   -2.235816   -1.439475 O.3        1 UNL1     -0.3909
     49 C         0.634689   -0.134258   -0.838311 C.3        1 UNL1     -0.0577
     50 O         3.36871   1.61723   0.729217 O.3        1 UNL1     -0.3910
     51 O         2.290098   4.222361   1.147234 O.3        1 UNL1     -0.3753
     52 C         0.587866   2.73116   -1.849898 C.3        1 UNL1     -0.0564
     53 O         -1.349138   1.867624   0.643032 O.3        1 UNL1     -0.4608
     54 C         -1.860182   0.840548   1.392617 C.2        1 UNL1     0.3042
     55 O         -2.394311   -0.189297   0.982784 O.2        1 UNL1     -0.2512
     56 C         -1.66879   1.022227   2.871493 C.3        1 UNL1     0.0332
     57 C         1.43953   2.6332   2.962582 C.3        1 UNL1     -0.0567
     58 C         3.50666   5.488392   -3.68394 C.3        1 UNL1     0.0210
     59 C         2.007798   5.303653   2.034352 C.3        1 UNL1     0.0372
     60 C         2.808429   4.279451   -1.120125 C.2        1 UNL1     -0.0208
     61 C         4.129369   4.245381   -0.939289 C.2        1 UNL1     0.0882
     62 H         4.860301   0.215244   -2.458844 H        1 UNL1     0.0365
     63 H         5.973718   0.234027   -4.17062 H        1 UNL1     0.0576
     64 H         6.110339   -2.57073   -5.440047 H        1 UNL1     0.0615
     65 H         7.163593   0.227185   -6.345685 H        1 UNL1     0.0622
     66 H         1.265221   5.338878   -0.216653 H        1 UNL1     0.0645
     67 H         -0.359876   4.028094   -0.592302 H        1 UNL1     0.0362
     68 H         -0.355295   3.336478   1.490393 H        1 UNL1     0.0741
     69 H         0.501186   0.962363   2.300583 H        1 UNL1     0.0359
     70 H         2.543824   0.175241   1.844974 H        1 UNL1     0.0600
     71 H         1.889466   -1.238226   0.335459 H        1 UNL1     0.0348
     72 H         3.768328   -0.29445   -0.893854 H        1 UNL1     0.0602
     73 H         2.409457   4.400034   -2.096613 H        1 UNL1     0.0628
     74 H         4.616021   4.066673   0.020123 H        1 UNL1     0.1022
     75 H         7.221215   -1.659631   -10.105826 H        1 UNL1     0.0279
     76 H         8.471089   -2.501084   -9.279344 H        1 UNL1     0.0279
     77 H         6.722763   -2.891169   -9.021486 H        1 UNL1     0.0279
     78 H         5.880114   0.03789   -9.78801 H        1 UNL1     0.1553
     79 H         4.55045   -0.679396   -8.505933 H        1 UNL1     0.1484
     80 H         1.448222   0.512382   -6.663289 H        1 UNL1     0.0317
     81 H         2.333732   1.529835   -7.790492 H        1 UNL1     0.0317
     82 H         2.698224   -0.406985   -9.342773 H        1 UNL1     0.0428
     83 H         1.004944   -0.113065   -9.013959 H        1 UNL1     0.0428
     84 H         2.846481   -3.272241   -6.838763 H        1 UNL1     0.0428
     85 H         3.845689   -2.439021   -7.977381 H        1 UNL1     0.0428
     86 H         4.069075   -1.779297   -5.58161 H        1 UNL1     0.0317
     87 H         2.441061   -1.292108   -5.460916 H        1 UNL1     0.0317
     88 H         1.743863   -2.619816   -9.915412 H        1 UNL1     0.0429
     89 H         1.365853   -3.76818   -8.629098 H        1 UNL1     0.0429
     90 H         -0.539011   -1.546173   -8.55445 H        1 UNL1     0.0308
     91 H         0.345115   -1.841912   -11.18712 H        1 UNL1     0.0233
     92 H         -1.0613   -2.934512   -11.126159 H        1 UNL1     0.0233
     93 H         -1.24698   -1.235565   -10.747076 H        1 UNL1     0.0233
     94 H         -1.11564   -4.384587   -9.385451 H        1 UNL1     0.0233
     95 H         -0.712039   -3.944732   -7.718729 H        1 UNL1     0.0233
     96 H         -2.1537   -3.251166   -8.49627 H        1 UNL1     0.0233
     97 H         7.819016   7.48212   -6.583191 H        1 UNL1     0.0280
     98 H         6.457761   7.723898   -5.522194 H        1 UNL1     0.0280
     99 H         7.995615   7.092014   -4.862303 H        1 UNL1     0.0280
     100 H         8.326418   4.90546   -8.6011 H        1 UNL1     0.2922
     101 H         5.763301   -0.721206   -0.575655 H        1 UNL1     0.0236
     102 H         6.680943   -1.745288   -1.748366 H        1 UNL1     0.0236
     103 H         5.273033   -2.348417   -0.930124 H        1 UNL1     0.0236
     104 H         3.597261   -2.511702   -0.752484 H        1 UNL1     0.2098
     105 H         0.525312   0.735588   -1.48113 H        1 UNL1     0.0234
     106 H         0.229399   -1.019455   -1.328303 H        1 UNL1     0.0234
     107 H         -0.0   0.0   0.0 H        1 UNL1     0.0234
     108 H         3.509116   2.186195   1.510455 H        1 UNL1     0.2098
     109 H         0.558576   3.495166   -2.639296 H        1 UNL1     0.0234
     110 H         1.469277   2.095629   -1.987588 H        1 UNL1     0.0234
     111 H         -0.257952   2.060976   -2.053349 H        1 UNL1     0.0234
     112 H         -1.102826   0.179434   3.27982 H        1 UNL1     0.0342
     113 H         -1.185625   1.968873   3.108678 H        1 UNL1     0.0342
     114 H         -2.658901   1.025334   3.347765 H        1 UNL1     0.0342
     115 H         2.477075   2.986373   2.885405 H        1 UNL1     0.0234
     116 H         0.80244   3.510854   3.088635 H        1 UNL1     0.0234
     117 H         1.469302   2.092998   3.924474 H        1 UNL1     0.0234
     118 H         2.910552   5.849167   -2.827492 H        1 UNL1     0.0309
     119 H         3.692015   6.322577   -4.368031 H        1 UNL1     0.0309
     120 H         2.8174   4.815624   -4.205869 H        1 UNL1     0.0309
     121 H         2.758198   6.075   1.863239 H        1 UNL1     0.0524
     122 H         1.019397   5.753985   1.843821 H        1 UNL1     0.0524
     123 H         2.047684   4.964075   3.065463 H        1 UNL1     0.0524
@<TRIPOS>BOND
     1     1     2    1
     2     1    42    1
     3     2     3    2
     4     3     4    1
     5     4     5    2
     6     5     7    1
     7     6    75    1
     8     6    76    1
     9     6    77    1
    10     7     9   am
    11     9    10    1
    12    10    11    2
    13    10    43    1
    14    11    14    1
    15    11    15    1
    16    12    13   ar
    17    12    27   ar
    18    12    43    1
    19    13    14    1
    20    13    30   ar
    21    14    17    2
    22    15    16    1
    23    16    17    1
    24    16    18    1
    25    16    22    1
    26    18    19    1
    27    19    20    1
    28    20    21    1
    29    21    22    1
    30    23    24    1
    31    23    88    1
    32    23    89    1
    33    24    25    1
    34    24    26    1
    35    24    90    1
    36    25    91    1
    37    25    92    1
    38    25    93    1
    39    26    94    1
    40    26    95    1
    41    26    96    1
    42    27    28   ar
    43    28    29   ar
    44    29    30   ar
    45    29    31    1
    46    30    33    1
    47    31    32    1
    48    32    33    1
    49    32    35    1
    50    34    97    1
    51    34    98    1
    52    34    99    1
    53    35    61    1
    54    36    37    1
    55    36    60    1
    56    37    38    1
    57    38    39    1
    58    39    40    1
    59    40    41    1
    60    41    42    1
    61    45   100    1
    62    47   101    1
    63    47   102    1
    64    47   103    1
    65    48   104    1
    66    49   105    1
    67    49   106    1
    68    49   107    1
    69    50   108    1
    70    51    59    1
    71    52   109    1
    72    52   110    1
    73    52   111    1
    74    53    54    1
    75    54    55    2
    76    54    56    1
    77    56   112    1
    78    56   113    1
    79    56   114    1
    80    57   115    1
    81    57   116    1
    82    57   117    1
    83    58   118    1
    84    58   119    1
    85    58   120    1
    86    59   121    1
    87    59   122    1
    88    59   123    1
    89    60    61    2
    90     1    47    1
    91     1    62    1
    92     2    63    1
    93     3    64    1
    94     4    65    1
    95     5     6    1
    96     7     8    2
    97     9    78    1
    98    15    79    1
    99    18    80    1
   100    18    81    1
   101    19    82    1
   102    19    83    1
   103    20    23    1
   104    21    84    1
   105    21    85    1
   106    22    86    1
   107    22    87    1
   108    27    45    1
   109    28    34    1
   110    32    58    1
   111    33    46    2
   112    36    51    1
   113    36    66    1
   114    37    52    1
   115    37    67    1
   116    38    53    1
   117    38    68    1
   118    42    48    1
   119    42    72    1
   120    43    44    2
   121    60    73    1
   122    61    74    1
   123    39    69    1
   124    39    57    1
   125    40    70    1
   126    40    50    1
   127    41    71    1
   128    41    49    1
