@<TRIPOS>MOLECULE
*****
 123 128 0 0 0
SMALL
GASTEIGER

@<TRIPOS>ATOM
     1 C         -2.94735   -0.20552   3.040049 C.3        1 UNL1     0.0009
     2 C         -4.71143   -0.749872   2.870528 C.2        1 UNL1     -0.0787
     3 C         -6.122446   -0.433294   2.800811 C.2        1 UNL1     -0.0649
     4 C         -7.410648   -1.485619   2.485367 C.2        1 UNL1     -0.0542
     5 C         -8.75893   -1.575474   2.059761 C.2        1 UNL1     0.0115
     6 C         -10.034295   -0.747232   1.742301 C.3        1 UNL1     -0.0348
     7 C         -9.321185   -2.99146   1.553952 C.2        1 UNL1     0.2441
     8 O         -10.029855   -3.711037   2.244257 O.2        1 UNL1     -0.2702
     9 N         -9.163144   -3.230311   0.17768 N.am        1 UNL1     -0.2772
     10 C         -7.940821   -3.810885   -0.071688 C.2        1 UNL1     0.1049
     11 C         -6.912876   -2.986775   -0.163311 C.2        1 UNL1     0.0801
     12 C         -6.436808   -5.665593   0.673519 C.ar        1 UNL1     0.0753
     13 C         -5.398578   -4.684064   0.758887 C.ar        1 UNL1     0.0305
     14 C         -5.57143   -3.338293   0.2166 C.2        1 UNL1     0.0924
     15 N         -6.886268   -1.646557   -0.261476 N.pl3        1 UNL1     -0.3170
     16 C         -5.525132   -1.25102   -0.508685 C.3        1 UNL1     0.1275
     17 N         -4.694261   -2.343292   0.119264 N.2        1 UNL1     -0.2557
     18 C         -5.290871   -1.352447   -2.012858 C.3        1 UNL1     0.0016
     19 C         -6.330874   -0.502599   -2.725418 C.3        1 UNL1     0.0026
     20 N         -6.203949   0.873914   -2.267019 N.3        1 UNL1     -0.3018
     21 C         -6.3525   1.06443   -0.822718 C.3        1 UNL1     0.0026
     22 C         -5.2952   0.205349   -0.127022 C.3        1 UNL1     0.0016
     23 C         -6.936866   1.813059   -3.092539 C.3        1 UNL1     0.0012
     24 C         -8.2197   2.26951   -2.379975 C.3        1 UNL1     -0.0339
     25 C         -9.359707   2.520993   -3.380574 C.3        1 UNL1     -0.0615
     26 C         -8.617627   1.254206   -1.322813 C.3        1 UNL1     -0.0615
     27 C         -6.223133   -6.979691   1.082919 C.ar        1 UNL1     0.1347
     28 C         -5.006383   -7.438227   1.555482 C.ar        1 UNL1     0.0342
     29 C         -4.013422   -6.442977   1.676606 C.ar        1 UNL1     0.1435
     30 C         -4.224057   -5.114708   1.30438 C.ar        1 UNL1     0.0774
     31 O         -2.743386   -6.752388   2.017605 O.3        1 UNL1     -0.4436
     32 C         -1.966475   -5.626357   1.582479 C.3        1 UNL1     0.3143
     33 C         -2.944829   -4.470951   1.518663 C.2        1 UNL1     0.2504
     34 C         -4.63119   -8.877498   1.774179 C.3        1 UNL1     -0.0327
     35 O         -1.032103   -5.324673   2.62612 O.2        1 UNL1     -0.4528
     36 C         2.00963   -3.844851   0.903889 C.3        1 UNL1     0.0854
     37 C         2.104814   -2.587534   -0.043536 C.3        1 UNL1     0.0236
     38 C         3.161764   -1.47281   0.416889 C.3        1 UNL1     0.1131
     39 C         3.129066   -0.925097   1.900537 C.3        1 UNL1     0.0200
     40 C         1.676951   -0.551311   2.631347 C.3        1 UNL1     0.0661
     41 C         0.449673   0.413331   1.967371 C.3        1 UNL1     0.0091
     42 C         -1.371654   0.327975   2.169574 C.3        1 UNL1     0.0661
     43 C         -7.721412   -5.259718   0.051171 C.2        1 UNL1     0.2131
     44 O         -8.514228   -6.04798   -0.431348 O.2        1 UNL1     -0.2851
     45 O         -7.299543   -7.861381   1.009429 O.3        1 UNL1     -0.5056
     46 O         -2.721776   -3.28713   1.639783 O.2        1 UNL1     -0.2836
     47 C         -2.64325   0.18757   4.510758 C.3        1 UNL1     -0.0566
     48 O         -1.525566   1.780423   2.426129 O.3        1 UNL1     -0.3909
     49 C         0.721427   0.601351   0.491467 C.3        1 UNL1     -0.0577
     50 O         1.114971   -1.694688   3.243386 O.3        1 UNL1     -0.3910
     51 O         2.725084   -3.75876   2.11556 O.3        1 UNL1     -0.3753
     52 C         0.715211   -2.213216   -0.65496 C.3        1 UNL1     -0.0564
     53 O         3.489066   -0.475947   -0.656174 O.3        1 UNL1     -0.4608
     54 C         4.718347   -0.309265   -1.238423 C.2        1 UNL1     0.3042
     55 O         5.537444   0.58053   -1.012187 O.2        1 UNL1     -0.2512
     56 C         5.074258   -1.39534   -2.21335 C.3        1 UNL1     0.0332
     57 C         4.195788   -1.763311   2.747695 C.3        1 UNL1     -0.0567
     58 C         -1.486725   -5.953565   0.149194 C.3        1 UNL1     0.0210
     59 C         3.955603   -4.480702   2.137653 C.3        1 UNL1     0.0372
     60 C         0.625381   -4.266714   1.251806 C.2        1 UNL1     -0.0208
     61 C         0.098878   -4.621621   2.424658 C.2        1 UNL1     0.0882
     62 H         -2.633962   -1.250057   2.924107 H        1 UNL1     0.0365
     63 H         -4.589425   -1.834974   2.858813 H        1 UNL1     0.0576
     64 H         -6.477373   0.599644   2.787638 H        1 UNL1     0.0615
     65 H         -6.969476   -2.479416   2.600331 H        1 UNL1     0.0622
     66 H         2.436164   -4.668119   0.313682 H        1 UNL1     0.0645
     67 H         2.582033   -2.977482   -0.959376 H        1 UNL1     0.0362
     68 H         4.090818   -2.058334   0.342435 H        1 UNL1     0.0741
     69 H         3.661495   0.016007   1.935915 H        1 UNL1     0.0359
     70 H         2.041459   0.063738   3.476278 H        1 UNL1     0.0600
     71 H         0.742599   1.402889   2.369774 H        1 UNL1     0.0348
     72 H         -0.946024   -0.228497   3.017215 H        1 UNL1     0.0602
     73 H         0.061027   -4.382575   0.359994 H        1 UNL1     0.0628
     74 H         0.588946   -4.480471   3.388581 H        1 UNL1     0.1022
     75 H         -10.908334   -1.137347   2.317541 H        1 UNL1     0.0279
     76 H         -10.015043   0.301993   2.028351 H        1 UNL1     0.0279
     77 H         -10.380113   -0.879078   0.706575 H        1 UNL1     0.0279
     78 H         -9.191878   -2.347509   -0.328198 H        1 UNL1     0.1553
     79 H         -7.673501   -1.093201   -0.54607 H        1 UNL1     0.1484
     80 H         -4.272854   -1.013472   -2.239806 H        1 UNL1     0.0317
     81 H         -5.357406   -2.392434   -2.349981 H        1 UNL1     0.0317
     82 H         -7.349812   -0.882502   -2.560042 H        1 UNL1     0.0428
     83 H         -6.146655   -0.590723   -3.796561 H        1 UNL1     0.0428
     84 H         -6.173825   2.093366   -0.495339 H        1 UNL1     0.0428
     85 H         -7.376234   0.851095   -0.485414 H        1 UNL1     0.0428
     86 H         -5.34531   0.470212   0.912845 H        1 UNL1     0.0317
     87 H         -4.291443   0.53281   -0.424239 H        1 UNL1     0.0317
     88 H         -6.29895   2.690724   -3.260056 H        1 UNL1     0.0429
     89 H         -7.16197   1.386208   -4.078389 H        1 UNL1     0.0429
     90 H         -8.017874   3.201663   -1.839078 H        1 UNL1     0.0308
     91 H         -9.431078   1.712001   -4.113745 H        1 UNL1     0.0233
     92 H         -10.31551   2.619062   -2.860544 H        1 UNL1     0.0233
     93 H         -9.222064   3.450976   -3.945393 H        1 UNL1     0.0233
     94 H         -9.683939   1.348786   -1.090714 H        1 UNL1     0.0233
     95 H         -8.441927   0.240456   -1.693491 H        1 UNL1     0.0233
     96 H         -8.049084   1.3959   -0.399422 H        1 UNL1     0.0233
     97 H         -5.270925   -9.554659   1.216126 H        1 UNL1     0.0280
     98 H         -3.606199   -9.092586   1.444957 H        1 UNL1     0.0280
     99 H         -4.718911   -9.123103   2.845196 H        1 UNL1     0.0280
     100 H         -8.14526   -7.45207   1.06281 H        1 UNL1     0.2922
     101 H         -3.526936   0.639497   4.960777 H        1 UNL1     0.0236
     102 H         -1.763129   0.821741   4.611733 H        1 UNL1     0.0236
     103 H         -2.428617   -0.693092   5.138899 H        1 UNL1     0.0236
     104 H         -0.654651   2.199411   2.281465 H        1 UNL1     0.2098
     105 H         0.599391   1.622418   0.138848 H        1 UNL1     0.0234
     106 H         1.672326   0.194195   0.148041 H        1 UNL1     0.0234
     107 H         0.0   0.0   0.0 H        1 UNL1     0.0234
     108 H         0.2894   -1.412592   3.682273 H        1 UNL1     0.2098
     109 H         -0.067061   -2.126796   0.112044 H        1 UNL1     0.0234
     110 H         0.741894   -1.297833   -1.255879 H        1 UNL1     0.0234
     111 H         0.36112   -2.981265   -1.355436 H        1 UNL1     0.0234
     112 H         6.071987   -1.214084   -2.624481 H        1 UNL1     0.0342
     113 H         5.010553   -2.385501   -1.76461 H        1 UNL1     0.0342
     114 H         4.356086   -1.359537   -3.04408 H        1 UNL1     0.0342
     115 H         4.676874   -1.14876   3.521045 H        1 UNL1     0.0234
     116 H         3.778348   -2.64365   3.240439 H        1 UNL1     0.0234
     117 H         5.070538   -2.086165   2.15734 H        1 UNL1     0.0234
     118 H         -1.789703   -5.178574   -0.576477 H        1 UNL1     0.0309
     119 H         -0.404496   -6.103514   0.082119 H        1 UNL1     0.0309
     120 H         -1.944491   -6.86554   -0.249376 H        1 UNL1     0.0309
     121 H         4.172725   -4.730454   3.175843 H        1 UNL1     0.0524
     122 H         3.895814   -5.426711   1.574156 H        1 UNL1     0.0524
     123 H         4.755202   -3.873327   1.723128 H        1 UNL1     0.0524
@<TRIPOS>BOND
     1     1     2    1
     2     1    42    1
     3     2     3    2
     4     3     4    1
     5     4     5    2
     6     5     7    1
     7     6    75    1
     8     6    76    1
     9     6    77    1
    10     7     9   am
    11     9    10    1
    12    10    11    2
    13    10    43    1
    14    11    14    1
    15    11    15    1
    16    12    13   ar
    17    12    27   ar
    18    12    43    1
    19    13    14    1
    20    13    30   ar
    21    14    17    2
    22    15    16    1
    23    16    17    1
    24    16    18    1
    25    16    22    1
    26    18    19    1
    27    19    20    1
    28    20    21    1
    29    21    22    1
    30    23    24    1
    31    23    88    1
    32    23    89    1
    33    24    25    1
    34    24    26    1
    35    24    90    1
    36    25    91    1
    37    25    92    1
    38    25    93    1
    39    26    94    1
    40    26    95    1
    41    26    96    1
    42    27    28   ar
    43    28    29   ar
    44    29    30   ar
    45    29    31    1
    46    30    33    1
    47    31    32    1
    48    32    33    1
    49    32    35    1
    50    34    97    1
    51    34    98    1
    52    34    99    1
    53    35    61    1
    54    36    37    1
    55    36    60    1
    56    37    38    1
    57    38    39    1
    58    39    40    1
    59    40    41    1
    60    41    42    1
    61    45   100    1
    62    47   101    1
    63    47   102    1
    64    47   103    1
    65    48   104    1
    66    49   105    1
    67    49   106    1
    68    49   107    1
    69    50   108    1
    70    51    59    1
    71    52   109    1
    72    52   110    1
    73    52   111    1
    74    53    54    1
    75    54    55    2
    76    54    56    1
    77    56   112    1
    78    56   113    1
    79    56   114    1
    80    57   115    1
    81    57   116    1
    82    57   117    1
    83    58   118    1
    84    58   119    1
    85    58   120    1
    86    59   121    1
    87    59   122    1
    88    59   123    1
    89    60    61    2
    90     1    47    1
    91     1    62    1
    92     2    63    1
    93     3    64    1
    94     4    65    1
    95     5     6    1
    96     7     8    2
    97     9    78    1
    98    15    79    1
    99    18    80    1
   100    18    81    1
   101    19    82    1
   102    19    83    1
   103    20    23    1
   104    21    84    1
   105    21    85    1
   106    22    86    1
   107    22    87    1
   108    27    45    1
   109    28    34    1
   110    32    58    1
   111    33    46    2
   112    36    51    1
   113    36    66    1
   114    37    52    1
   115    37    67    1
   116    38    53    1
   117    38    68    1
   118    42    48    1
   119    42    72    1
   120    43    44    2
   121    60    73    1
   122    61    74    1
   123    39    69    1
   124    39    57    1
   125    40    70    1
   126    40    50    1
   127    41    71    1
   128    41    49    1
