@<TRIPOS>MOLECULE
*****
 123 128 0 0 0
SMALL
GASTEIGER

@<TRIPOS>ATOM
     1 C         -2.54042   0.116007   -4.672231 C.3        1 UNL1     0.0009
     2 C         -3.714867   1.06729   -5.745902 C.2        1 UNL1     -0.0787
     3 C         -5.066122   1.370248   -6.168246 C.2        1 UNL1     -0.0649
     4 C         -5.574036   2.569438   -7.25006 C.2        1 UNL1     -0.0542
     5 C         -6.671908   3.353515   -7.682472 C.2        1 UNL1     0.0115
     6 C         -8.210248   3.535014   -7.564608 C.3        1 UNL1     -0.0348
     7 C         -6.388526   4.683431   -8.535705 C.2        1 UNL1     0.2441
     8 O         -6.532626   4.738771   -9.749253 O.2        1 UNL1     -0.2702
     9 N         -6.216646   5.849368   -7.769415 N.am        1 UNL1     -0.2772
     10 C         -4.89713   5.996292   -7.408008 C.2        1 UNL1     0.1049
     11 C         -4.506023   5.318203   -6.344311 C.2        1 UNL1     0.0801
     12 C         -2.572347   5.964293   -8.33088 C.ar        1 UNL1     0.0753
     13 C         -2.248066   5.058756   -7.270948 C.ar        1 UNL1     0.0305
     14 C         -3.172552   4.810477   -6.166985 C.2        1 UNL1     0.0924
     15 N         -5.232311   4.663922   -5.421842 N.pl3        1 UNL1     -0.3170
     16 C         -4.337719   4.240847   -4.377348 C.3        1 UNL1     0.1275
     17 N         -3.001588   4.089382   -5.062576 N.2        1 UNL1     -0.2557
     18 C         -4.187138   5.410673   -3.409601 C.3        1 UNL1     0.0016
     19 C         -5.568323   5.821778   -2.924927 C.3        1 UNL1     0.0026
     20 N         -6.194408   4.679784   -2.273086 N.3        1 UNL1     -0.3018
     21 C         -6.327129   3.483553   -3.107224 C.3        1 UNL1     0.0026
     22 C         -4.927596   3.085578   -3.579258 C.3        1 UNL1     0.0016
     23 C         -7.3776   5.040446   -1.517691 C.3        1 UNL1     0.0012
     24 C         -7.450495   6.56345   -1.325593 C.3        1 UNL1     -0.0339
     25 C         -7.966686   7.265949   -2.592124 C.3        1 UNL1     -0.0615
     26 C         -8.305028   6.895307   -0.114633 C.3        1 UNL1     -0.0615
     27 C         -1.640341   6.288003   -9.314086 C.ar        1 UNL1     0.1347
     28 C         -0.34499   5.802124   -9.320216 C.ar        1 UNL1     0.0342
     29 C         -0.063507   4.874461   -8.294852 C.ar        1 UNL1     0.1435
     30 C         -0.998362   4.512919   -7.323999 C.ar        1 UNL1     0.0774
     31 O         1.184785   4.395848   -8.100683 O.3        1 UNL1     -0.4436
     32 C         1.177525   3.899799   -6.753554 C.3        1 UNL1     0.3143
     33 C         -0.278471   3.616681   -6.443499 C.2        1 UNL1     0.2504
     34 C         0.777707   6.295653   -10.189745 C.3        1 UNL1     -0.0327
     35 O         1.855631   2.637511   -6.760769 O.2        1 UNL1     -0.4528
     36 C         3.447122   2.291558   -3.33213 C.3        1 UNL1     0.0854
     37 C         2.767169   2.330519   -1.909573 C.3        1 UNL1     0.0236
     38 C         3.058207   1.052122   -0.986132 C.3        1 UNL1     0.1131
     39 C         2.82656   -0.402378   -1.563227 C.3        1 UNL1     0.0200
     40 C         1.462761   -0.748568   -2.459129 C.3        1 UNL1     0.0661
     41 C         -0.134206   -0.382101   -2.019799 C.3        1 UNL1     0.0091
     42 C         -1.585522   0.04558   -3.057186 C.3        1 UNL1     0.0661
     43 C         -3.904841   6.616722   -8.298391 C.2        1 UNL1     0.2131
     44 O         -4.158779   7.657801   -8.876671 O.2        1 UNL1     -0.2851
     45 O         -2.050791   7.141612   -10.336006 O.3        1 UNL1     -0.5056
     46 O         -0.740522   2.815818   -5.661846 O.2        1 UNL1     -0.2836
     47 C         -2.40774   -1.344821   -5.180522 C.3        1 UNL1     -0.0566
     48 O         -2.500204   -0.89506   -2.366052 O.3        1 UNL1     -0.3909
     49 C         -0.110836   0.598033   -0.868154 C.3        1 UNL1     -0.0577
     50 O         1.669819   -0.446305   -3.824225 O.3        1 UNL1     -0.3910
     51 O         4.074002   1.078361   -3.682281 O.3        1 UNL1     -0.3753
     52 C         1.365702   3.022563   -1.953331 C.3        1 UNL1     -0.0564
     53 O         2.706764   1.261743   0.457777 O.3        1 UNL1     -0.4608
     54 C         1.746202   0.572267   1.150506 C.2        1 UNL1     0.3042
     55 O         0.619366   0.962333   1.453702 O.2        1 UNL1     -0.2512
     56 C         2.150615   -0.830447   1.504846 C.3        1 UNL1     0.0332
     57 C         4.232439   -0.933704   -2.110378 C.3        1 UNL1     -0.0567
     58 C         1.661594   5.062817   -5.856561 C.3        1 UNL1     0.0210
     59 C         4.632355   1.049244   -4.99501 C.3        1 UNL1     0.0372
     60 C         2.554612   2.6564   -4.465919 C.2        1 UNL1     -0.0208
     61 C         2.391979   2.080699   -5.657919 C.2        1 UNL1     0.0882
     62 H         -1.709785   0.678287   -5.115624 H        1 UNL1     0.0365
     63 H         -3.013726   1.626221   -6.369173 H        1 UNL1     0.0576
     64 H         -5.933409   0.928251   -5.672707 H        1 UNL1     0.0615
     65 H         -4.650047   2.884524   -7.74245 H        1 UNL1     0.0622
     66 H         4.217667   3.07427   -3.291283 H        1 UNL1     0.0645
     67 H         3.31828   3.120649   -1.370565 H        1 UNL1     0.0362
     68 H         4.148633   1.151051   -0.873403 H        1 UNL1     0.0741
     69 H         2.749991   -1.09652   -0.736963 H        1 UNL1     0.0359
     70 H         1.48111   -1.854352   -2.414802 H        1 UNL1     0.0600
     71 H         -0.412013   -1.32034   -1.500677 H        1 UNL1     0.0348
     72 H         -0.86778   -0.44789   -3.72849 H        1 UNL1     0.0602
     73 H         2.090923   3.588898   -4.259307 H        1 UNL1     0.0628
     74 H         2.784796   1.099813   -5.927726 H        1 UNL1     0.1022
     75 H         -8.731307   2.55529   -7.689792 H        1 UNL1     0.0279
     76 H         -8.585937   3.87904   -6.603581 H        1 UNL1     0.0279
     77 H         -8.635131   4.114491   -8.397303 H        1 UNL1     0.0279
     78 H         -6.762801   5.779613   -6.913304 H        1 UNL1     0.1553
     79 H         -6.211075   4.823021   -5.268081 H        1 UNL1     0.1484
     80 H         -3.544737   5.10407   -2.575286 H        1 UNL1     0.0317
     81 H         -3.689132   6.257505   -3.89387 H        1 UNL1     0.0317
     82 H         -6.19293   6.199246   -3.747908 H        1 UNL1     0.0428
     83 H         -5.43785   6.658246   -2.237651 H        1 UNL1     0.0428
     84 H         -6.726572   2.617063   -2.571079 H        1 UNL1     0.0428
     85 H         -7.036483   3.637098   -3.932183 H        1 UNL1     0.0428
     86 H         -5.046647   2.138484   -4.072033 H        1 UNL1     0.0317
     87 H         -4.295332   2.844769   -2.715922 H        1 UNL1     0.0317
     88 H         -8.25844   4.717553   -2.087915 H        1 UNL1     0.0429
     89 H         -7.409572   4.517679   -0.553084 H        1 UNL1     0.0429
     90 H         -6.448055   6.945224   -1.098493 H        1 UNL1     0.0308
     91 H         -7.571003   6.795441   -3.497199 H        1 UNL1     0.0233
     92 H         -9.058519   7.247503   -2.626319 H        1 UNL1     0.0233
     93 H         -7.677359   8.323134   -2.63065 H        1 UNL1     0.0233
     94 H         -9.362164   6.71448   -0.337345 H        1 UNL1     0.0233
     95 H         -8.023874   6.256652   0.727409 H        1 UNL1     0.0233
     96 H         -8.188316   7.941564   0.181495 H        1 UNL1     0.0233
     97 H         1.213649   5.498127   -10.784 H        1 UNL1     0.0280
     98 H         0.442055   7.055906   -10.907108 H        1 UNL1     0.0280
     99 H         1.5705   6.728976   -9.558235 H        1 UNL1     0.0280
     100 H         -1.938503   8.057279   -10.150079 H        1 UNL1     0.2922
     101 H         -1.455952   -1.469569   -5.696463 H        1 UNL1     0.0236
     102 H         -3.250112   -1.663547   -5.793553 H        1 UNL1     0.0236
     103 H         -2.373528   -2.070503   -4.350818 H        1 UNL1     0.0236
     104 H         -2.885451   -0.423749   -1.601577 H        1 UNL1     0.2098
     105 H         0.716669   1.302548   -0.894731 H        1 UNL1     0.0234
     106 H         -1.050031   1.124634   -0.69924 H        1 UNL1     0.0234
     107 H         0.0   0.0   0.0 H        1 UNL1     0.0234
     108 H         0.794451   -0.44572   -4.257237 H        1 UNL1     0.2098
     109 H         1.224863   3.729661   -1.123941 H        1 UNL1     0.0234
     110 H         1.164857   3.52817   -2.903998 H        1 UNL1     0.0234
     111 H         0.550657   2.292175   -1.862883 H        1 UNL1     0.0234
     112 H         1.334677   -1.330124   2.035803 H        1 UNL1     0.0342
     113 H         2.455249   -1.402307   0.629621 H        1 UNL1     0.0342
     114 H         3.012275   -0.777776   2.184502 H        1 UNL1     0.0342
     115 H         4.330609   -2.021952   -1.9952 H        1 UNL1     0.0234
     116 H         4.418799   -0.696429   -3.159673 H        1 UNL1     0.0234
     117 H         5.09607   -0.578409   -1.52229 H        1 UNL1     0.0234
     118 H         1.316477   4.953299   -4.813534 H        1 UNL1     0.0309
     119 H         2.749219   5.186244   -5.862842 H        1 UNL1     0.0309
     120 H         1.244966   6.029403   -6.160269 H        1 UNL1     0.0309
     121 H         5.581855   1.582791   -4.961336 H        1 UNL1     0.0524
     122 H         4.840664   0.022232   -5.338363 H        1 UNL1     0.0524
     123 H         3.958701   1.527099   -5.700658 H        1 UNL1     0.0524
@<TRIPOS>BOND
     1     1     2    1
     2     1    42    1
     3     2     3    2
     4     3     4    1
     5     4     5    2
     6     5     7    1
     7     6    75    1
     8     6    76    1
     9     6    77    1
    10     7     9   am
    11     9    10    1
    12    10    11    2
    13    10    43    1
    14    11    14    1
    15    11    15    1
    16    12    13   ar
    17    12    27   ar
    18    12    43    1
    19    13    14    1
    20    13    30   ar
    21    14    17    2
    22    15    16    1
    23    16    17    1
    24    16    18    1
    25    16    22    1
    26    18    19    1
    27    19    20    1
    28    20    21    1
    29    21    22    1
    30    23    24    1
    31    23    88    1
    32    23    89    1
    33    24    25    1
    34    24    26    1
    35    24    90    1
    36    25    91    1
    37    25    92    1
    38    25    93    1
    39    26    94    1
    40    26    95    1
    41    26    96    1
    42    27    28   ar
    43    28    29   ar
    44    29    30   ar
    45    29    31    1
    46    30    33    1
    47    31    32    1
    48    32    33    1
    49    32    35    1
    50    34    97    1
    51    34    98    1
    52    34    99    1
    53    35    61    1
    54    36    37    1
    55    36    60    1
    56    37    38    1
    57    38    39    1
    58    39    40    1
    59    40    41    1
    60    41    42    1
    61    45   100    1
    62    47   101    1
    63    47   102    1
    64    47   103    1
    65    48   104    1
    66    49   105    1
    67    49   106    1
    68    49   107    1
    69    50   108    1
    70    51    59    1
    71    52   109    1
    72    52   110    1
    73    52   111    1
    74    53    54    1
    75    54    55    2
    76    54    56    1
    77    56   112    1
    78    56   113    1
    79    56   114    1
    80    57   115    1
    81    57   116    1
    82    57   117    1
    83    58   118    1
    84    58   119    1
    85    58   120    1
    86    59   121    1
    87    59   122    1
    88    59   123    1
    89    60    61    2
    90     1    47    1
    91     1    62    1
    92     2    63    1
    93     3    64    1
    94     4    65    1
    95     5     6    1
    96     7     8    2
    97     9    78    1
    98    15    79    1
    99    18    80    1
   100    18    81    1
   101    19    82    1
   102    19    83    1
   103    20    23    1
   104    21    84    1
   105    21    85    1
   106    22    86    1
   107    22    87    1
   108    27    45    1
   109    28    34    1
   110    32    58    1
   111    33    46    2
   112    36    51    1
   113    36    66    1
   114    37    52    1
   115    37    67    1
   116    38    53    1
   117    38    68    1
   118    42    48    1
   119    42    72    1
   120    43    44    2
   121    60    73    1
   122    61    74    1
   123    39    69    1
   124    39    57    1
   125    40    70    1
   126    40    50    1
   127    41    71    1
   128    41    49    1
