@<TRIPOS>MOLECULE
*****
 123 128 0 0 0
SMALL
GASTEIGER

@<TRIPOS>ATOM
     1 C         2.841861   -1.089666   2.89776 C.3        1 UNL1     0.0009
     2 C         4.674406   -1.255824   2.671463 C.2        1 UNL1     -0.0787
     3 C         5.849704   -2.085244   2.507817 C.2        1 UNL1     -0.0649
     4 C         7.43771   -1.589386   2.193621 C.2        1 UNL1     -0.0542
     5 C         8.704736   -1.992712   1.704692 C.2        1 UNL1     0.0115
     6 C         9.550592   -3.220513   1.268396 C.3        1 UNL1     -0.0348
     7 C         9.760755   -0.867568   1.262127 C.2        1 UNL1     0.2441
     8 O         10.709152   -0.534127   1.959183 O.2        1 UNL1     -0.2702
     9 N         9.675779   -0.477688   -0.085806 N.am        1 UNL1     -0.2772
     10 C         8.769375   0.54704   -0.233069 C.2        1 UNL1     0.1049
     11 C         7.500242   0.193001   -0.323506 C.2        1 UNL1     0.0801
     12 C         8.121477   2.772599   0.707385 C.ar        1 UNL1     0.0753
     13 C         6.785872   2.263744   0.78376 C.ar        1 UNL1     0.0305
     14 C         6.409843   1.00307   0.147871 C.2        1 UNL1     0.0924
     15 N         6.952992   -1.020976   -0.506005 N.pl3        1 UNL1     -0.3170
     16 C         5.539708   -0.840227   -0.706536 C.3        1 UNL1     0.1275
     17 N         5.213113   0.434264   0.032877 N.2        1 UNL1     -0.2557
     18 C         5.328163   -0.537131   -2.186766 C.3        1 UNL1     0.0016
     19 C         5.939581   -1.662662   -3.005875 C.3        1 UNL1     0.0026
     20 N         5.29882   -2.915569   -2.630803 N.3        1 UNL1     -0.3018
     21 C         5.395412   -3.262763   -1.211474 C.3        1 UNL1     0.0026
     22 C         4.771252   -2.120737   -0.407674 C.3        1 UNL1     0.0016
     23 C         5.590028   -3.99583   -3.552149 C.3        1 UNL1     0.0012
     24 C         6.739688   -4.864392   -3.017696 C.3        1 UNL1     -0.0339
     25 C         6.431068   -5.402149   -1.610703 C.3        1 UNL1     -0.0615
     26 C         7.039133   -5.989573   -3.99293 C.3        1 UNL1     -0.0615
     27 C         8.444496   4.030455   1.210946 C.ar        1 UNL1     0.1347
     28 C         7.512694   4.88347   1.775003 C.ar        1 UNL1     0.0342
     29 C         6.214298   4.34171   1.883762 C.ar        1 UNL1     0.1435
     30 C         5.883843   3.069042   1.416495 C.ar        1 UNL1     0.0774
     31 O         5.172425   5.088634   2.309919 O.3        1 UNL1     -0.4436
     32 C         4.009283   4.387574   1.844635 C.3        1 UNL1     0.3143
     33 C         4.4604   2.953353   1.655645 C.2        1 UNL1     0.2504
     34 C         7.731073   6.333817   2.105007 C.3        1 UNL1     -0.0327
     35 O         3.055734   4.387488   2.914213 O.2        1 UNL1     -0.4528
     36 C         -0.36126   4.336568   1.262048 C.3        1 UNL1     0.0854
     37 C         -0.959321   3.292734   0.24212 C.3        1 UNL1     0.0236
     38 C         -2.355138   2.638844   0.68469 C.3        1 UNL1     0.1131
     39 C         -2.503063   2.004817   2.126355 C.3        1 UNL1     0.0200
     40 C         -1.293424   1.043337   2.754661 C.3        1 UNL1     0.0661
     41 C         -0.552927   -0.263776   1.966797 C.3        1 UNL1     0.0091
     42 C         1.162793   -0.903492   2.078475 C.3        1 UNL1     0.0661
     43 C         9.132742   1.953742   -0.006113 C.2        1 UNL1     0.2131
     44 O         10.157941   2.411099   -0.477842 O.2        1 UNL1     -0.2851
     45 O         9.776782   4.431867   1.137998 O.3        1 UNL1     -0.5056
     46 O         3.798036   1.941449   1.712001 O.2        1 UNL1     -0.2836
     47 C         2.443413   -1.450688   4.354086 C.3        1 UNL1     -0.0566
     48 O         0.746544   -2.318423   2.232824 O.3        1 UNL1     -0.3909
     49 C         -0.910752   -0.214556   0.498113 C.3        1 UNL1     -0.0577
     50 O         -0.317416   1.829138   3.40861 O.3        1 UNL1     -0.3910
     51 O         -1.025491   4.436928   2.501466 O.3        1 UNL1     -0.3753
     52 C         0.161181   2.461542   -0.463958 C.3        1 UNL1     -0.0564
     53 O         -3.068824   1.933905   -0.431571 O.3        1 UNL1     -0.4608
     54 C         -3.416279   2.494806   -1.632652 C.2        1 UNL1     0.3042
     55 O         -4.093652   1.987486   -2.525754 O.2        1 UNL1     -0.2512
     56 C         -2.934701   3.908106   -1.798121 C.3        1 UNL1     0.0332
     57 C         -3.140469   3.119255   3.080251 C.3        1 UNL1     -0.0567
     58 C         3.660921   4.987227   0.462395 C.3        1 UNL1     0.0210
     59 C         -0.784738   5.649396   3.214083 C.3        1 UNL1     0.0372
     60 C         1.085891   4.163106   1.563422 C.2        1 UNL1     -0.0208
     61 C         1.736127   4.193185   2.727481 C.2        1 UNL1     0.0882
     62 H         2.956077   0.000581   2.865693 H        1 UNL1     0.0365
     63 H         4.983114   -0.210346   2.735854 H        1 UNL1     0.0576
     64 H         5.775245   -3.17058   2.409785 H        1 UNL1     0.0615
     65 H         7.419895   -0.514875   2.395094 H        1 UNL1     0.0622
     66 H         -0.448277   5.304718   0.749057 H        1 UNL1     0.0645
     67 H         -1.268906   3.907961   -0.620558 H        1 UNL1     0.0362
     68 H         -2.985368   3.541167   0.69671 H        1 UNL1     0.0741
     69 H         -3.35818   1.342115   2.12904 H        1 UNL1     0.0359
     70 H         -1.848329   0.551295   3.576266 H        1 UNL1     0.0600
     71 H         -1.197654   -1.092519   2.319601 H        1 UNL1     0.0348
     72 H         1.00658   -0.29523   2.981211 H        1 UNL1     0.0602
     73 H         1.629955   4.122941   0.652581 H        1 UNL1     0.0628
     74 H         1.252361   4.175735   3.704672 H        1 UNL1     0.1022
     75 H         10.437859   -3.342297   1.935449 H        1 UNL1     0.0279
     76 H         9.067933   -4.19256   1.340757 H        1 UNL1     0.0279
     77 H         10.032717   -3.078785   0.290046 H        1 UNL1     0.0279
     78 H         9.347619   -1.260101   -0.648139 H        1 UNL1     0.1553
     79 H         7.456681   -1.81052   -0.866352 H        1 UNL1     0.1484
     80 H         4.253408   -0.438268   -2.381428 H        1 UNL1     0.0317
     81 H         5.785441   0.420054   -2.459428 H        1 UNL1     0.0317
     82 H         7.029642   -1.719363   -2.869993 H        1 UNL1     0.0428
     83 H         5.779082   -1.425503   -4.058037 H        1 UNL1     0.0428
     84 H         4.838892   -4.165786   -0.941946 H        1 UNL1     0.0428
     85 H         6.429222   -3.488101   -0.915203 H        1 UNL1     0.0428
     86 H         4.738844   -2.466186   0.608989 H        1 UNL1     0.0317
     87 H         3.712463   -2.0112   -0.672371 H        1 UNL1     0.0317
     88 H         4.691766   -4.620816   -3.640537 H        1 UNL1     0.0429
     89 H         5.816033   -3.613742   -4.555993 H        1 UNL1     0.0429
     90 H         7.653233   -4.260098   -2.967932 H        1 UNL1     0.0308
     91 H         6.453229   -6.495835   -1.589219 H        1 UNL1     0.0233
     92 H         7.148044   -5.01455   -0.883158 H        1 UNL1     0.0233
     93 H         5.439426   -5.097011   -1.255216 H        1 UNL1     0.0233
     94 H         8.120836   -6.089927   -4.13323 H        1 UNL1     0.0233
     95 H         6.661099   -6.936752   -3.598084 H        1 UNL1     0.0233
     96 H         6.579816   -5.805219   -4.968127 H        1 UNL1     0.0233
     97 H         6.942034   6.731309   2.736392 H        1 UNL1     0.0280
     98 H         8.667009   6.496652   2.655248 H        1 UNL1     0.0280
     99 H         7.759193   6.923875   1.174343 H        1 UNL1     0.0280
     100 H         10.392268   3.728329   1.029215 H        1 UNL1     0.2922
     101 H         2.909249   -2.393592   4.639715 H        1 UNL1     0.0236
     102 H         1.365682   -1.462207   4.513293 H        1 UNL1     0.0236
     103 H         2.827246   -0.716962   5.082448 H        1 UNL1     0.0236
     104 H         0.23642   -2.56436   1.43642 H        1 UNL1     0.2098
     105 H         -1.296528   -1.148974   0.098298 H        1 UNL1     0.0234
     106 H         -1.559816   0.614017   0.215079 H        1 UNL1     0.0234
     107 H         0.0   0.0   0.0 H        1 UNL1     0.0234
     108 H         -0.117356   2.587129   2.826207 H        1 UNL1     0.2098
     109 H         -0.236282   1.825607   -1.267277 H        1 UNL1     0.0234
     110 H         0.974653   3.081496   -0.855957 H        1 UNL1     0.0234
     111 H         0.660576   1.778642   0.236184 H        1 UNL1     0.0234
     112 H         -3.737279   4.529257   -2.207249 H        1 UNL1     0.0342
     113 H         -2.555909   4.323536   -0.865502 H        1 UNL1     0.0342
     114 H         -2.107985   3.906364   -2.521794 H        1 UNL1     0.0342
     115 H         -2.905476   4.135451   2.734835 H        1 UNL1     0.0234
     116 H         -4.225353   3.04944   3.181254 H        1 UNL1     0.0234
     117 H         -2.704218   3.132518   4.093883 H        1 UNL1     0.0234
     118 H         3.489789   6.076732   0.514328 H        1 UNL1     0.0309
     119 H         4.419085   4.779685   -0.29939 H        1 UNL1     0.0309
     120 H         2.716372   4.60196   0.063016 H        1 UNL1     0.0309
     121 H         0.077843   6.134279   2.757797 H        1 UNL1     0.0524
     122 H         -1.633647   6.349989   3.146546 H        1 UNL1     0.0524
     123 H         -0.585271   5.437008   4.2606 H        1 UNL1     0.0524
@<TRIPOS>BOND
     1     1     2    1
     2     1    42    1
     3     2     3    2
     4     3     4    1
     5     4     5    2
     6     5     7    1
     7     6    75    1
     8     6    76    1
     9     6    77    1
    10     7     9   am
    11     9    10    1
    12    10    11    2
    13    10    43    1
    14    11    14    1
    15    11    15    1
    16    12    13   ar
    17    12    27   ar
    18    12    43    1
    19    13    14    1
    20    13    30   ar
    21    14    17    2
    22    15    16    1
    23    16    17    1
    24    16    18    1
    25    16    22    1
    26    18    19    1
    27    19    20    1
    28    20    21    1
    29    21    22    1
    30    23    24    1
    31    23    88    1
    32    23    89    1
    33    24    25    1
    34    24    26    1
    35    24    90    1
    36    25    91    1
    37    25    92    1
    38    25    93    1
    39    26    94    1
    40    26    95    1
    41    26    96    1
    42    27    28   ar
    43    28    29   ar
    44    29    30   ar
    45    29    31    1
    46    30    33    1
    47    31    32    1
    48    32    33    1
    49    32    35    1
    50    34    97    1
    51    34    98    1
    52    34    99    1
    53    35    61    1
    54    36    37    1
    55    36    60    1
    56    37    38    1
    57    38    39    1
    58    39    40    1
    59    40    41    1
    60    41    42    1
    61    45   100    1
    62    47   101    1
    63    47   102    1
    64    47   103    1
    65    48   104    1
    66    49   105    1
    67    49   106    1
    68    49   107    1
    69    50   108    1
    70    51    59    1
    71    52   109    1
    72    52   110    1
    73    52   111    1
    74    53    54    1
    75    54    55    2
    76    54    56    1
    77    56   112    1
    78    56   113    1
    79    56   114    1
    80    57   115    1
    81    57   116    1
    82    57   117    1
    83    58   118    1
    84    58   119    1
    85    58   120    1
    86    59   121    1
    87    59   122    1
    88    59   123    1
    89    60    61    2
    90     1    47    1
    91     1    62    1
    92     2    63    1
    93     3    64    1
    94     4    65    1
    95     5     6    1
    96     7     8    2
    97     9    78    1
    98    15    79    1
    99    18    80    1
   100    18    81    1
   101    19    82    1
   102    19    83    1
   103    20    23    1
   104    21    84    1
   105    21    85    1
   106    22    86    1
   107    22    87    1
   108    27    45    1
   109    28    34    1
   110    32    58    1
   111    33    46    2
   112    36    51    1
   113    36    66    1
   114    37    52    1
   115    37    67    1
   116    38    53    1
   117    38    68    1
   118    42    48    1
   119    42    72    1
   120    43    44    2
   121    60    73    1
   122    61    74    1
   123    39    69    1
   124    39    57    1
   125    40    70    1
   126    40    50    1
   127    41    71    1
   128    41    49    1
