@<TRIPOS>MOLECULE
*****
 123 128 0 0 0
SMALL
GASTEIGER

@<TRIPOS>ATOM
     1 C         5.182786   1.710552   0.460792 C.3        1 UNL1     0.0009
     2 C         6.621025   2.504087   -0.398747 C.2        1 UNL1     -0.0787
     3 C         7.898683   2.394908   -1.070844 C.2        1 UNL1     -0.0649
     4 C         8.781387   3.62182   -1.833654 C.2        1 UNL1     -0.0542
     5 C         9.798704   3.904822   -2.77814 C.2        1 UNL1     0.0115
     6 C         10.917732   3.269114   -3.648183 C.3        1 UNL1     -0.0348
     7 C         9.901948   5.386011   -3.388393 C.2        1 UNL1     0.2441
     8 O         10.733863   6.202309   -3.016775 O.2        1 UNL1     -0.2702
     9 N         9.147254   5.596031   -4.555646 N.am        1 UNL1     -0.2772
     10 C         7.86909   5.992941   -4.236147 C.2        1 UNL1     0.1049
     11 C         7.017615   5.028493   -3.937726 C.2        1 UNL1     0.0801
     12 C         6.589992   7.612275   -2.822287 C.ar        1 UNL1     0.0753
     13 C         5.82488   6.49102   -2.368415 C.ar        1 UNL1     0.0305
     14 C         5.928756   5.18309   -3.011517 C.2        1 UNL1     0.0924
     15 N         7.129517   3.698297   -4.094516 N.pl3        1 UNL1     -0.3170
     16 C         5.856872   3.109291   -3.77249 C.3        1 UNL1     0.1275
     17 N         5.232667   4.071362   -2.791413 N.2        1 UNL1     -0.2557
     18 C         4.997975   3.171982   -5.031882 C.3        1 UNL1     0.0016
     19 C         5.741907   2.479841   -6.162853 C.3        1 UNL1     0.0026
     20 N         6.003772   1.100602   -5.775354 N.3        1 UNL1     -0.3018
     21 C         6.772302   0.937205   -4.539623 C.3        1 UNL1     0.0026
     22 C         6.004516   1.635936   -3.416158 C.3        1 UNL1     0.0016
     23 C         6.436432   0.275373   -6.885511 C.3        1 UNL1     0.0012
     24 C         5.2727   0.027861   -7.858251 C.3        1 UNL1     -0.0339
     25 C         5.29422   1.027031   -9.026691 C.3        1 UNL1     -0.0615
     26 C         5.301991   -1.408654   -8.350536 C.3        1 UNL1     -0.0615
     27 C         6.397562   8.882625   -2.284421 C.ar        1 UNL1     0.1347
     28 C         5.445506   9.161393   -1.320093 C.ar        1 UNL1     0.0342
     29 C         4.737906   8.033204   -0.853556 C.ar        1 UNL1     0.1435
     30 C         4.945188   6.748485   -1.357293 C.ar        1 UNL1     0.0774
     31 O         3.702211   8.156377   0.00503 O.3        1 UNL1     -0.4436
     32 C         2.970652   6.928666   -0.130692 C.3        1 UNL1     0.3143
     33 C         3.973767   5.926883   -0.665861 C.2        1 UNL1     0.2504
     34 C         5.011131   10.531742   -0.880137 C.3        1 UNL1     -0.0327
     35 O         2.613581   6.497522   1.188348 O.2        1 UNL1     -0.4528
     36 C         -0.645764   4.588709   0.812594 C.3        1 UNL1     0.0854
     37 C         -0.965079   3.328492   -0.080386 C.3        1 UNL1     0.0236
     38 C         -1.570923   2.073673   0.71342 C.3        1 UNL1     0.1131
     39 C         -0.842419   1.54017   2.012237 C.3        1 UNL1     0.0200
     40 C         0.817834   1.382335   2.045165 C.3        1 UNL1     0.0661
     41 C         1.765398   0.603837   0.873126 C.3        1 UNL1     0.0091
     42 C         3.472698   0.952428   0.299528 C.3        1 UNL1     0.0661
     43 C         7.532653   7.395061   -3.947662 C.2        1 UNL1     0.2131
     44 O         7.935489   8.288568   -4.67023 O.2        1 UNL1     -0.2851
     45 O         7.21513   9.910649   -2.749381 O.3        1 UNL1     -0.5056
     46 O         3.981472   4.72355   -0.532504 O.2        1 UNL1     -0.2836
     47 C         5.583373   1.281262   1.89788 C.3        1 UNL1     -0.0566
     48 O         3.911161   -0.461801   0.382124 O.3        1 UNL1     -0.3909
     49 C         0.9231   0.374775   -0.362009 C.3        1 UNL1     -0.0577
     50 O         1.429106   2.596541   2.432171 O.3        1 UNL1     -0.3910
     51 O         -0.764062   4.402995   2.205054 O.3        1 UNL1     -0.3753
     52 C         0.072176   3.157728   -1.237922 C.3        1 UNL1     -0.0564
     53 O         -2.185892   1.037254   -0.180994 O.3        1 UNL1     -0.4608
     54 C         -2.416208   -0.270309   0.158364 C.2        1 UNL1     0.3042
     55 O         -1.853836   -1.268514   -0.290146 O.2        1 UNL1     -0.2512
     56 C         -3.441187   -0.438378   1.243668 C.3        1 UNL1     0.0332
     57 C         -1.551911   2.217269   3.275698 C.3        1 UNL1     -0.0567
     58 C         1.891716   7.179404   -1.209839 C.3        1 UNL1     0.0210
     59 C         -1.095625   5.57977   2.940672 C.3        1 UNL1     0.0372
     60 C         0.686668   5.207361   0.573729 C.2        1 UNL1     -0.0208
     61 C         1.607306   5.637669   1.437445 C.2        1 UNL1     0.0882
     62 H         4.714665   2.698434   0.54833 H        1 UNL1     0.0365
     63 H         6.36318   3.56007   -0.29441 H        1 UNL1     0.0576
     64 H         8.347975   1.424192   -1.292103 H        1 UNL1     0.0615
     65 H         8.302937   4.541578   -1.48636 H        1 UNL1     0.0622
     66 H         -1.386431   5.340091   0.50456 H        1 UNL1     0.0645
     67 H         -1.831453   3.642969   -0.687889 H        1 UNL1     0.0362
     68 H         -2.51288   2.518368   1.069069 H        1 UNL1     0.0741
     69 H         -1.180446   0.532002   2.211594 H        1 UNL1     0.0359
     70 H         0.929251   0.723115   2.927251 H        1 UNL1     0.0600
     71 H         1.803585   -0.41669   1.302106 H        1 UNL1     0.0348
     72 H         3.37553   1.443548   1.278647 H        1 UNL1     0.0602
     73 H         0.800658   5.40146   -0.463854 H        1 UNL1     0.0628
     74 H         1.593733   5.42948   2.507824 H        1 UNL1     0.1022
     75 H         10.954773   2.163871   -3.492939 H        1 UNL1     0.0279
     76 H         10.799134   3.350391   -4.726328 H        1 UNL1     0.0279
     77 H         11.926727   3.567026   -3.327435 H        1 UNL1     0.0279
     78 H         9.076058   4.725423   -5.078189 H        1 UNL1     0.1553
     79 H         7.788374   3.264007   -4.714381 H        1 UNL1     0.1484
     80 H         4.034083   2.688658   -4.831693 H        1 UNL1     0.0317
     81 H         4.777694   4.209802   -5.304018 H        1 UNL1     0.0317
     82 H         6.675204   3.003642   -6.416824 H        1 UNL1     0.0428
     83 H         5.112571   2.537695   -7.051469 H        1 UNL1     0.0428
     84 H         6.886451   -0.105937   -4.228758 H        1 UNL1     0.0428
     85 H         7.804555   1.297315   -4.649579 H        1 UNL1     0.0428
     86 H         6.523758   1.383715   -2.5102 H        1 UNL1     0.0317
     87 H         5.022202   1.165893   -3.284948 H        1 UNL1     0.0317
     88 H         7.231027   0.811788   -7.420461 H        1 UNL1     0.0429
     89 H         6.867332   -0.671167   -6.53457 H        1 UNL1     0.0429
     90 H         4.324268   0.140667   -7.319768 H        1 UNL1     0.0308
     91 H         6.238908   0.976008   -9.576294 H        1 UNL1     0.0233
     92 H         4.467984   0.834319   -9.715026 H        1 UNL1     0.0233
     93 H         5.177025   2.064585   -8.691156 H        1 UNL1     0.0233
     94 H         4.599007   -1.537879   -9.180566 H        1 UNL1     0.0233
     95 H         6.302598   -1.658672   -8.714183 H        1 UNL1     0.0233
     96 H         5.030278   -2.108587   -7.555404 H        1 UNL1     0.0233
     97 H         4.221287   10.489503   -0.136098 H        1 UNL1     0.0280
     98 H         5.830523   11.096734   -0.416847 H        1 UNL1     0.0280
     99 H         4.637163   11.097139   -1.749372 H        1 UNL1     0.0280
     100 H         6.752026   10.663749   -3.071866 H        1 UNL1     0.2922
     101 H         4.719984   0.855178   2.408437 H        1 UNL1     0.0236
     102 H         6.043133   2.08449   2.47271 H        1 UNL1     0.0236
     103 H         6.333609   0.472974   1.894665 H        1 UNL1     0.0236
     104 H         4.334267   -0.588999   1.253774 H        1 UNL1     0.2098
     105 H         0.714812   1.273792   -0.936635 H        1 UNL1     0.0234
     106 H         1.282785   -0.417923   -1.017893 H        1 UNL1     0.0234
     107 H         0.0   -0.0   0.0 H        1 UNL1     0.0234
     108 H         1.229491   3.255485   1.739556 H        1 UNL1     0.2098
     109 H         1.098095   3.037448   -0.862775 H        1 UNL1     0.0234
     110 H         -0.169936   2.330895   -1.914289 H        1 UNL1     0.0234
     111 H         0.096556   4.038924   -1.892785 H        1 UNL1     0.0234
     112 H         -3.573304   -1.500874   1.469484 H        1 UNL1     0.0342
     113 H         -3.183538   0.12262   2.140742 H        1 UNL1     0.0342
     114 H         -4.400185   -0.051107   0.872847 H        1 UNL1     0.0342
     115 H         -2.617758   1.956899   3.333711 H        1 UNL1     0.0234
     116 H         -1.097354   1.955473   4.233242 H        1 UNL1     0.0234
     117 H         -1.604498   3.317849   3.21325 H        1 UNL1     0.0234
     118 H         0.996441   7.673918   -0.793973 H        1 UNL1     0.0309
     119 H         2.26106   7.762757   -2.059242 H        1 UNL1     0.0309
     120 H         1.494021   6.249436   -1.630678 H        1 UNL1     0.0309
     121 H         -0.288248   6.297187   2.796404 H        1 UNL1     0.0524
     122 H         -2.025834   6.050009   2.58064 H        1 UNL1     0.0524
     123 H         -1.204576   5.345237   3.995763 H        1 UNL1     0.0524
@<TRIPOS>BOND
     1     1     2    1
     2     1    42    1
     3     2     3    2
     4     3     4    1
     5     4     5    2
     6     5     7    1
     7     6    75    1
     8     6    76    1
     9     6    77    1
    10     7     9   am
    11     9    10    1
    12    10    11    2
    13    10    43    1
    14    11    14    1
    15    11    15    1
    16    12    13   ar
    17    12    27   ar
    18    12    43    1
    19    13    14    1
    20    13    30   ar
    21    14    17    2
    22    15    16    1
    23    16    17    1
    24    16    18    1
    25    16    22    1
    26    18    19    1
    27    19    20    1
    28    20    21    1
    29    21    22    1
    30    23    24    1
    31    23    88    1
    32    23    89    1
    33    24    25    1
    34    24    26    1
    35    24    90    1
    36    25    91    1
    37    25    92    1
    38    25    93    1
    39    26    94    1
    40    26    95    1
    41    26    96    1
    42    27    28   ar
    43    28    29   ar
    44    29    30   ar
    45    29    31    1
    46    30    33    1
    47    31    32    1
    48    32    33    1
    49    32    35    1
    50    34    97    1
    51    34    98    1
    52    34    99    1
    53    35    61    1
    54    36    37    1
    55    36    60    1
    56    37    38    1
    57    38    39    1
    58    39    40    1
    59    40    41    1
    60    41    42    1
    61    45   100    1
    62    47   101    1
    63    47   102    1
    64    47   103    1
    65    48   104    1
    66    49   105    1
    67    49   106    1
    68    49   107    1
    69    50   108    1
    70    51    59    1
    71    52   109    1
    72    52   110    1
    73    52   111    1
    74    53    54    1
    75    54    55    2
    76    54    56    1
    77    56   112    1
    78    56   113    1
    79    56   114    1
    80    57   115    1
    81    57   116    1
    82    57   117    1
    83    58   118    1
    84    58   119    1
    85    58   120    1
    86    59   121    1
    87    59   122    1
    88    59   123    1
    89    60    61    2
    90     1    47    1
    91     1    62    1
    92     2    63    1
    93     3    64    1
    94     4    65    1
    95     5     6    1
    96     7     8    2
    97     9    78    1
    98    15    79    1
    99    18    80    1
   100    18    81    1
   101    19    82    1
   102    19    83    1
   103    20    23    1
   104    21    84    1
   105    21    85    1
   106    22    86    1
   107    22    87    1
   108    27    45    1
   109    28    34    1
   110    32    58    1
   111    33    46    2
   112    36    51    1
   113    36    66    1
   114    37    52    1
   115    37    67    1
   116    38    53    1
   117    38    68    1
   118    42    48    1
   119    42    72    1
   120    43    44    2
   121    60    73    1
   122    61    74    1
   123    39    69    1
   124    39    57    1
   125    40    70    1
   126    40    50    1
   127    41    71    1
   128    41    49    1
