@<TRIPOS>MOLECULE
*****
 123 128 0 0 0
SMALL
GASTEIGER

@<TRIPOS>ATOM
     1 C         2.656818   -3.604101   -2.786125 C.3        1 UNL1     0.0009
     2 C         2.402545   -4.824749   -4.158132 C.2        1 UNL1     -0.0787
     3 C         2.345946   -6.193182   -4.627421 C.2        1 UNL1     -0.0649
     4 C         1.898963   -6.749043   -6.162863 C.2        1 UNL1     -0.0542
     5 C         1.445618   -7.86637   -6.906594 C.2        1 UNL1     0.0115
     6 C         1.200145   -9.399214   -6.847798 C.3        1 UNL1     -0.0348
     7 C         0.781164   -7.622698   -8.347467 C.2        1 UNL1     0.2441
     8 O         1.378733   -7.816515   -9.397168 O.2        1 UNL1     -0.2702
     9 N         -0.610292   -7.423614   -8.328321 N.am        1 UNL1     -0.2772
     10 C         -0.902291   -6.090929   -8.149404 C.2        1 UNL1     0.1049
     11 C         -0.888584   -5.654307   -6.903051 C.2        1 UNL1     0.0801
     12 C         -0.339118   -3.805752   -8.996833 C.ar        1 UNL1     0.0753
     13 C         -0.132303   -3.435274   -7.629872 C.ar        1 UNL1     0.0305
     14 C         -0.528485   -4.312963   -6.530894 C.2        1 UNL1     0.0924
     15 N         -0.840858   -6.339998   -5.748028 N.pl3        1 UNL1     -0.3170
     16 C         -1.023061   -5.401976   -4.672309 C.3        1 UNL1     0.1275
     17 N         -0.504282   -4.094486   -5.219174 N.2        1 UNL1     -0.2557
     18 C         -2.525632   -5.215945   -4.484235 C.3        1 UNL1     0.0016
     19 C         -3.157916   -6.577547   -4.243724 C.3        1 UNL1     0.0026
     20 N         -2.551497   -7.172517   -3.060806 N.3        1 UNL1     -0.3018
     21 C         -1.0975   -7.335147   -3.122544 C.3        1 UNL1     0.0026
     22 C         -0.482715   -5.95474   -3.360049 C.3        1 UNL1     0.0016
     23 C         -3.281727   -8.325045   -2.571839 C.3        1 UNL1     0.0012
     24 C         -2.81283   -9.60247   -3.286036 C.3        1 UNL1     -0.0339
     25 C         -2.251291   -10.630002   -2.289588 C.3        1 UNL1     -0.0615
     26 C         -3.94807   -10.185182   -4.109722 C.3        1 UNL1     -0.0615
     27 C         -0.070981   -2.915868   -10.034294 C.ar        1 UNL1     0.1347
     28 C         0.367744   -1.620192   -9.827422 C.ar        1 UNL1     0.0342
     29 C         0.610895   -1.293814   -8.476304 C.ar        1 UNL1     0.1435
     30 C         0.381287   -2.18692   -7.428992 C.ar        1 UNL1     0.0774
     31 O         0.935777   -0.036988   -8.102346 O.3        1 UNL1     -0.4436
     32 C         0.636847   0.012573   -6.699115 C.3        1 UNL1     0.3143
     33 C         0.683405   -1.428538   -6.233021 C.2        1 UNL1     0.2504
     34 C         0.435249   -0.535709   -10.866383 C.3        1 UNL1     -0.0327
     35 O         1.72112   0.694144   -6.056414 O.2        1 UNL1     -0.4528
     36 C         0.215582   2.425752   -3.032678 C.3        1 UNL1     0.0854
     37 C         -0.588791   1.804438   -1.826662 C.3        1 UNL1     0.0236
     38 C         0.005525   2.137398   -0.37488 C.3        1 UNL1     0.1131
     39 C         1.53902   1.887327   -0.078018 C.3        1 UNL1     0.0200
     40 C         2.283721   0.489213   -0.60064 C.3        1 UNL1     0.0661
     41 C         1.709285   -1.089691   -0.366766 C.3        1 UNL1     0.0091
     42 C         1.873265   -2.583692   -1.418656 C.3        1 UNL1     0.0661
     43 C         -0.933462   -5.138033   -9.268944 C.2        1 UNL1     0.2131
     44 O         -1.510413   -5.418988   -10.3038 O.2        1 UNL1     -0.2851
     45 O         -0.255778   -3.37071   -11.338291 O.3        1 UNL1     -0.5056
     46 O         0.935194   -1.855473   -5.128402 O.2        1 UNL1     -0.2836
     47 C         4.165872   -3.487315   -2.441022 C.3        1 UNL1     -0.0566
     48 O         2.282971   -3.4661   -0.299454 O.3        1 UNL1     -0.3909
     49 C         0.266679   -1.022589   0.082543 C.3        1 UNL1     -0.0577
     50 O         2.759909   0.639211   -1.922937 O.3        1 UNL1     -0.3910
     51 O         1.44023   3.041941   -2.704078 O.3        1 UNL1     -0.3753
     52 C         -1.177289   0.399988   -2.181824 C.3        1 UNL1     -0.0564
     53 O         -0.948352   1.844604   0.746154 O.3        1 UNL1     -0.4608
     54 C         -0.60337   1.338089   1.971862 C.2        1 UNL1     0.3042
     55 O         -0.767575   0.188326   2.377965 O.2        1 UNL1     -0.2512
     56 C         0.100082   2.328534   2.855541 C.3        1 UNL1     0.0332
     57 C         2.306763   3.271459   -0.308076 C.3        1 UNL1     -0.0567
     58 C         -0.815926   0.528941   -6.579343 C.3        1 UNL1     0.0210
     59 C         2.006921   3.840452   -3.741916 C.3        1 UNL1     0.0372
     60 C         0.494691   1.486357   -4.152855 C.2        1 UNL1     -0.0208
     61 C         1.614127   1.277071   -4.846977 C.2        1 UNL1     0.0882
     62 H         2.433419   -2.794236   -3.491052 H        1 UNL1     0.0365
     63 H         2.275444   -4.151616   -5.008548 H        1 UNL1     0.0576
     64 H         2.439114   -7.037948   -3.941274 H        1 UNL1     0.0615
     65 H         1.912524   -5.847058   -6.7807 H        1 UNL1     0.0622
     66 H         -0.453598   3.194633   -3.443855 H        1 UNL1     0.0645
     67 H         -1.534034   2.374425   -1.812867 H        1 UNL1     0.0362
     68 H         -0.117615   3.231176   -0.372135 H        1 UNL1     0.0741
     69 H         1.684058   1.847009   0.993312 H        1 UNL1     0.0359
     70 H         3.195657   0.513155   0.026144 H        1 UNL1     0.0600
     71 H         2.220738   -1.342807   0.582605 H        1 UNL1     0.0348
     72 H         2.662167   -1.892326   -1.748749 H        1 UNL1     0.0602
     73 H         -0.412926   1.028312   -4.458918 H        1 UNL1     0.0628
     74 H         2.595024   1.661884   -4.565913 H        1 UNL1     0.1022
     75 H         2.165957   -9.954204   -6.926715 H        1 UNL1     0.0279
     76 H         0.781305   -9.788313   -5.922463 H        1 UNL1     0.0279
     77 H         0.660165   -9.777501   -7.72815 H        1 UNL1     0.0279
     78 H         -1.018139   -7.934044   -7.547809 H        1 UNL1     0.1553
     79 H         -1.075934   -7.312192   -5.667334 H        1 UNL1     0.1484
     80 H         -2.699044   -4.5389   -3.639069 H        1 UNL1     0.0317
     81 H         -2.974194   -4.741076   -5.363407 H        1 UNL1     0.0317
     82 H         -3.050147   -7.236592   -5.117771 H        1 UNL1     0.0428
     83 H         -4.229372   -6.421937   -4.114045 H        1 UNL1     0.0428
     84 H         -0.658109   -7.709345   -2.192639 H        1 UNL1     0.0428
     85 H         -0.800896   -8.07818   -3.8757 H        1 UNL1     0.0428
     86 H         0.578807   -6.090601   -3.266769 H        1 UNL1     0.0317
     87 H         -0.727438   -5.286863   -2.525096 H        1 UNL1     0.0317
     88 H         -3.076272   -8.429312   -1.498428 H        1 UNL1     0.0429
     89 H         -4.365121   -8.185922   -2.679896 H        1 UNL1     0.0429
     90 H         -2.024417   -9.344357   -4.002971 H        1 UNL1     0.0308
     91 H         -2.735888   -10.542487   -1.312547 H        1 UNL1     0.0233
     92 H         -2.385108   -11.64668   -2.666507 H        1 UNL1     0.0233
     93 H         -1.174525   -10.504898   -2.122976 H        1 UNL1     0.0233
     94 H         -4.225328   -11.172735   -3.725401 H        1 UNL1     0.0233
     95 H         -4.827634   -9.538666   -4.043795 H        1 UNL1     0.0233
     96 H         -3.665277   -10.290355   -5.160881 H        1 UNL1     0.0233
     97 H         1.220395   -0.717115   -11.594303 H        1 UNL1     0.0280
     98 H         -0.495953   -0.455869   -11.442356 H        1 UNL1     0.0280
     99 H         0.63424   0.431959   -10.377389 H        1 UNL1     0.0280
     100 H         -1.127373   -3.25457   -11.673634 H        1 UNL1     0.2922
     101 H         4.283163   -3.068968   -1.441579 H        1 UNL1     0.0236
     102 H         4.73426   -2.931793   -3.186216 H        1 UNL1     0.0236
     103 H         4.656782   -4.473568   -2.390966 H        1 UNL1     0.0236
     104 H         2.197251   -2.95263   0.527571 H        1 UNL1     0.2098
     105 H         -0.422249   -1.596739   -0.531901 H        1 UNL1     0.0234
     106 H         0.107485   -1.245308   1.137522 H        1 UNL1     0.0234
     107 H         0.0   0.0   0.0 H        1 UNL1     0.0234
     108 H         1.984224   0.610604   -2.515611 H        1 UNL1     0.2098
     109 H         -2.275824   0.389889   -2.153005 H        1 UNL1     0.0234
     110 H         -0.832653   0.021258   -3.150087 H        1 UNL1     0.0234
     111 H         -0.854098   -0.367155   -1.465593 H        1 UNL1     0.0234
     112 H         0.365242   1.856339   3.806365 H        1 UNL1     0.0342
     113 H         0.977887   2.756289   2.373538 H        1 UNL1     0.0342
     114 H         -0.595688   3.151232   3.070568 H        1 UNL1     0.0342
     115 H         1.664727   4.135849   -0.089427 H        1 UNL1     0.0234
     116 H         3.216003   3.378982   0.28671 H        1 UNL1     0.0234
     117 H         2.566205   3.460391   -1.363981 H        1 UNL1     0.0234
     118 H         -1.364708   0.036082   -5.7578 H        1 UNL1     0.0309
     119 H         -0.876872   1.614222   -6.450295 H        1 UNL1     0.0309
     120 H         -1.419641   0.29425   -7.462834 H        1 UNL1     0.0309
     121 H         2.728828   3.223173   -4.275932 H        1 UNL1     0.0524
     122 H         1.251458   4.174837   -4.472326 H        1 UNL1     0.0524
     123 H         2.498885   4.711995   -3.319447 H        1 UNL1     0.0524
@<TRIPOS>BOND
     1     1     2    1
     2     1    42    1
     3     2     3    2
     4     3     4    1
     5     4     5    2
     6     5     7    1
     7     6    75    1
     8     6    76    1
     9     6    77    1
    10     7     9   am
    11     9    10    1
    12    10    11    2
    13    10    43    1
    14    11    14    1
    15    11    15    1
    16    12    13   ar
    17    12    27   ar
    18    12    43    1
    19    13    14    1
    20    13    30   ar
    21    14    17    2
    22    15    16    1
    23    16    17    1
    24    16    18    1
    25    16    22    1
    26    18    19    1
    27    19    20    1
    28    20    21    1
    29    21    22    1
    30    23    24    1
    31    23    88    1
    32    23    89    1
    33    24    25    1
    34    24    26    1
    35    24    90    1
    36    25    91    1
    37    25    92    1
    38    25    93    1
    39    26    94    1
    40    26    95    1
    41    26    96    1
    42    27    28   ar
    43    28    29   ar
    44    29    30   ar
    45    29    31    1
    46    30    33    1
    47    31    32    1
    48    32    33    1
    49    32    35    1
    50    34    97    1
    51    34    98    1
    52    34    99    1
    53    35    61    1
    54    36    37    1
    55    36    60    1
    56    37    38    1
    57    38    39    1
    58    39    40    1
    59    40    41    1
    60    41    42    1
    61    45   100    1
    62    47   101    1
    63    47   102    1
    64    47   103    1
    65    48   104    1
    66    49   105    1
    67    49   106    1
    68    49   107    1
    69    50   108    1
    70    51    59    1
    71    52   109    1
    72    52   110    1
    73    52   111    1
    74    53    54    1
    75    54    55    2
    76    54    56    1
    77    56   112    1
    78    56   113    1
    79    56   114    1
    80    57   115    1
    81    57   116    1
    82    57   117    1
    83    58   118    1
    84    58   119    1
    85    58   120    1
    86    59   121    1
    87    59   122    1
    88    59   123    1
    89    60    61    2
    90     1    47    1
    91     1    62    1
    92     2    63    1
    93     3    64    1
    94     4    65    1
    95     5     6    1
    96     7     8    2
    97     9    78    1
    98    15    79    1
    99    18    80    1
   100    18    81    1
   101    19    82    1
   102    19    83    1
   103    20    23    1
   104    21    84    1
   105    21    85    1
   106    22    86    1
   107    22    87    1
   108    27    45    1
   109    28    34    1
   110    32    58    1
   111    33    46    2
   112    36    51    1
   113    36    66    1
   114    37    52    1
   115    37    67    1
   116    38    53    1
   117    38    68    1
   118    42    48    1
   119    42    72    1
   120    43    44    2
   121    60    73    1
   122    61    74    1
   123    39    69    1
   124    39    57    1
   125    40    70    1
   126    40    50    1
   127    41    71    1
   128    41    49    1
