@<TRIPOS>MOLECULE
*****
 123 128 0 0 0
SMALL
GASTEIGER

@<TRIPOS>ATOM
     1 C         -1.539503   1.2487   -4.771359 C.3        1 UNL1     0.0009
     2 C         -1.625397   0.473924   -6.453436 C.2        1 UNL1     -0.0787
     3 C         -1.208576   0.4308   -7.839238 C.2        1 UNL1     -0.0649
     4 C         -1.600108   -0.729829   -9.007999 C.2        1 UNL1     -0.0542
     5 C         -1.227974   -1.296131   -10.252143 C.2        1 UNL1     0.0115
     6 C         -0.289912   -1.128035   -11.478971 C.3        1 UNL1     -0.0348
     7 C         -1.817579   -2.732665   -10.659239 C.2        1 UNL1     0.2441
     8 O         -2.736953   -2.873739   -11.453831 O.2        1 UNL1     -0.2702
     9 N         -1.039443   -3.827635   -10.244876 N.am        1 UNL1     -0.2772
     10 C         -1.40031   -4.220612   -8.976544 C.2        1 UNL1     0.1049
     11 C         -0.858642   -3.542678   -7.980942 C.2        1 UNL1     0.0801
     12 C         -3.386765   -4.782728   -7.563972 C.ar        1 UNL1     0.0753
     13 C         -2.858719   -3.869756   -6.596367 C.ar        1 UNL1     0.0305
     14 C         -1.510135   -3.320717   -6.718537 C.2        1 UNL1     0.0924
     15 N         0.154823   -2.659858   -7.987594 N.pl3        1 UNL1     -0.3170
     16 C         0.468334   -2.340477   -6.620129 C.3        1 UNL1     0.1275
     17 N         -0.828242   -2.549392   -5.87651 N.2        1 UNL1     -0.2557
     18 C         1.425341   -3.414944   -6.112824 C.3        1 UNL1     0.0016
     19 C         2.63112   -3.468079   -7.037412 C.3        1 UNL1     0.0026
     20 N         3.270494   -2.1596   -7.04798 N.3        1 UNL1     -0.3018
     21 C         2.409609   -1.050301   -7.463551 C.3        1 UNL1     0.0026
     22 C         1.207337   -1.012657   -6.518554 C.3        1 UNL1     0.0016
     23 C         4.587068   -2.180145   -7.653666 C.3        1 UNL1     0.0012
     24 C         4.808211   -3.495375   -8.417224 C.3        1 UNL1     -0.0339
     25 C         4.354442   -4.709193   -7.589699 C.3        1 UNL1     -0.0615
     26 C         4.104809   -3.441305   -9.762245 C.3        1 UNL1     -0.0615
     27 C         -4.624133   -5.394877   -7.378742 C.ar        1 UNL1     0.1347
     28 C         -5.403379   -5.203803   -6.251658 C.ar        1 UNL1     0.0342
     29 C         -4.88603   -4.263451   -5.335551 C.ar        1 UNL1     0.1435
     30 C         -3.664968   -3.615142   -5.525083 C.ar        1 UNL1     0.0774
     31 O         -5.473224   -4.049693   -4.137837 O.3        1 UNL1     -0.4436
     32 C         -4.452057   -3.434712   -3.337906 C.3        1 UNL1     0.3143
     33 C         -3.490567   -2.814334   -4.331325 C.2        1 UNL1     0.2504
     34 C         -6.612291   -6.011081   -5.868339 C.3        1 UNL1     -0.0327
     35 O         -5.064646   -2.35596   -2.620772 O.2        1 UNL1     -0.4528
     36 C         -3.124105   -2.029501   0.62512 C.3        1 UNL1     0.0854
     37 C         -1.581923   -1.781296   0.843279 C.3        1 UNL1     0.0236
     38 C         -1.224102   -0.512259   1.756107 C.3        1 UNL1     0.1131
     39 C         -1.871839   0.894432   1.433732 C.3        1 UNL1     0.0200
     40 C         -1.970602   1.438369   -0.140059 C.3        1 UNL1     0.0661
     41 C         -0.698525   1.470863   -1.261833 C.3        1 UNL1     0.0091
     42 C         -0.714216   1.268177   -3.085037 C.3        1 UNL1     0.0661
     43 C         -2.53299   -5.124979   -8.728529 C.2        1 UNL1     0.2131
     44 O         -2.67155   -6.137808   -9.39013 O.2        1 UNL1     -0.2851
     45 O         -5.086006   -6.235047   -8.389794 O.3        1 UNL1     -0.5056
     46 O         -2.761209   -1.860054   -4.178877 O.2        1 UNL1     -0.2836
     47 C         -2.321923   2.589416   -4.754594 C.3        1 UNL1     -0.0566
     48 O         0.148802   2.447349   -3.337761 O.3        1 UNL1     -0.3909
     49 C         0.439495   0.62615   -0.733758 C.3        1 UNL1     -0.0577
     50 O         -3.149807   0.966642   -0.760277 O.3        1 UNL1     -0.3910
     51 O         -3.984325   -1.020838   1.104757 O.3        1 UNL1     -0.3753
     52 C         -0.747372   -2.15455   -0.425246 C.3        1 UNL1     -0.0564
     53 O         0.198146   -0.49884   2.235017 O.3        1 UNL1     -0.4608
     54 C         1.208015   -1.287894   1.749745 C.2        1 UNL1     0.3042
     55 O         1.273446   -1.820254   0.642429 O.2        1 UNL1     -0.2512
     56 C         2.362234   -1.439102   2.699285 C.3        1 UNL1     0.0332
     57 C         -3.166319   1.052906   2.359681 C.3        1 UNL1     -0.0567
     58 C         -3.72937   -4.581642   -2.593726 C.3        1 UNL1     0.0210
     59 C         -5.366311   -1.37472   1.132138 C.3        1 UNL1     0.0372
     60 C         -3.524341   -2.301483   -0.782359 C.2        1 UNL1     -0.0208
     61 C         -4.542223   -1.823444   -1.499394 C.2        1 UNL1     0.0882
     62 H         -2.228846   0.47945   -4.402888 H        1 UNL1     0.0365
     63 H         -2.396797   -0.281615   -6.290426 H        1 UNL1     0.0576
     64 H         -0.432829   1.096229   -8.224632 H        1 UNL1     0.0615
     65 H         -2.428235   -1.283938   -8.55783 H        1 UNL1     0.0622
     66 H         -3.336681   -2.952592   1.182579 H        1 UNL1     0.0645
     67 H         -1.265454   -2.615464   1.493334 H        1 UNL1     0.0362
     68 H         -1.680902   -0.83332   2.704672 H        1 UNL1     0.0741
     69 H         -1.28569   1.66598   1.91493 H        1 UNL1     0.0359
     70 H         -2.164343   2.512895   0.041373 H        1 UNL1     0.0600
     71 H         -0.310495   2.493086   -1.08449 H        1 UNL1     0.0348
     72 H         -1.744325   1.526668   -2.799778 H        1 UNL1     0.0602
     73 H         -2.924456   -3.086803   -1.170507 H        1 UNL1     0.0628
     74 H         -5.167103   -0.981954   -1.198298 H        1 UNL1     0.1022
     75 H         0.199028   -0.124169   -11.463965 H        1 UNL1     0.0279
     76 H         0.561581   -1.80252   -11.534623 H        1 UNL1     0.0279
     77 H         -0.838493   -1.087774   -12.43141 H        1 UNL1     0.0279
     78 H         -0.058371   -3.558088   -10.214554 H        1 UNL1     0.1553
     79 H         0.825657   -2.587589   -8.730354 H        1 UNL1     0.1484
     80 H         1.719755   -3.174655   -5.084064 H        1 UNL1     0.0317
     81 H         0.932835   -4.392621   -6.077663 H        1 UNL1     0.0317
     82 H         2.350955   -3.779952   -8.054346 H        1 UNL1     0.0428
     83 H         3.299602   -4.241755   -6.658456 H        1 UNL1     0.0428
     84 H         2.889661   -0.069791   -7.386332 H        1 UNL1     0.0428
     85 H         2.127373   -1.126507   -8.522726 H        1 UNL1     0.0428
     86 H         0.671983   -0.114996   -6.766726 H        1 UNL1     0.0317
     87 H         1.544244   -0.831253   -5.490603 H        1 UNL1     0.0317
     88 H         4.648009   -1.34758   -8.366699 H        1 UNL1     0.0429
     89 H         5.373182   -2.02019   -6.904525 H        1 UNL1     0.0429
     90 H         5.875798   -3.605227   -8.641732 H        1 UNL1     0.0308
     91 H         3.840577   -5.446409   -8.213844 H        1 UNL1     0.0233
     92 H         5.208315   -5.185131   -7.101854 H        1 UNL1     0.0233
     93 H         3.659662   -4.43173   -6.787744 H        1 UNL1     0.0233
     94 H         4.519065   -4.199245   -10.435858 H        1 UNL1     0.0233
     95 H         3.038821   -3.649766   -9.63506 H        1 UNL1     0.0233
     96 H         4.219035   -2.460925   -10.233175 H        1 UNL1     0.0233
     97 H         -6.507068   -7.056926   -6.141043 H        1 UNL1     0.0280
     98 H         -6.791254   -5.999458   -4.785245 H        1 UNL1     0.0280
     99 H         -7.50211   -5.608524   -6.37948 H        1 UNL1     0.0280
     100 H         -5.021925   -7.153582   -8.195345 H        1 UNL1     0.2922
     101 H         -1.843374   3.2858   -4.066337 H        1 UNL1     0.0236
     102 H         -3.382334   2.4642   -4.538185 H        1 UNL1     0.0236
     103 H         -2.292873   3.098122   -5.732637 H        1 UNL1     0.0236
     104 H         0.986958   2.122667   -3.721229 H        1 UNL1     0.2098
     105 H         0.908087   -0.012258   -1.478518 H        1 UNL1     0.0234
     106 H         1.197641   1.178924   -0.179156 H        1 UNL1     0.0234
     107 H         0.0   0.0   0.0 H        1 UNL1     0.0234
     108 H         -2.879719   0.335313   -1.454715 H        1 UNL1     0.2098
     109 H         -0.920486   -3.191023   -0.746909 H        1 UNL1     0.0234
     110 H         -0.918324   -1.475981   -1.267899 H        1 UNL1     0.0234
     111 H         0.331767   -2.078168   -0.236643 H        1 UNL1     0.0234
     112 H         2.896995   -2.370477   2.489716 H        1 UNL1     0.0342
     113 H         3.036606   -0.584827   2.663507 H        1 UNL1     0.0342
     114 H         1.960661   -1.503665   3.71994 H        1 UNL1     0.0342
     115 H         -4.095042   1.009414   1.774215 H        1 UNL1     0.0234
     116 H         -3.241112   0.303559   3.150208 H        1 UNL1     0.0234
     117 H         -3.254598   2.049437   2.825594 H        1 UNL1     0.0234
     118 H         -4.23515   -4.846123   -1.64861 H        1 UNL1     0.0309
     119 H         -3.614304   -5.483735   -3.202979 H        1 UNL1     0.0309
     120 H         -2.720297   -4.303074   -2.270806 H        1 UNL1     0.0309
     121 H         -5.701693   -1.474129   0.100153 H        1 UNL1     0.0524
     122 H         -5.540701   -2.341815   1.63249 H        1 UNL1     0.0524
     123 H         -5.941146   -0.605924   1.640675 H        1 UNL1     0.0524
@<TRIPOS>BOND
     1     1     2    1
     2     1    42    1
     3     2     3    2
     4     3     4    1
     5     4     5    2
     6     5     7    1
     7     6    75    1
     8     6    76    1
     9     6    77    1
    10     7     9   am
    11     9    10    1
    12    10    11    2
    13    10    43    1
    14    11    14    1
    15    11    15    1
    16    12    13   ar
    17    12    27   ar
    18    12    43    1
    19    13    14    1
    20    13    30   ar
    21    14    17    2
    22    15    16    1
    23    16    17    1
    24    16    18    1
    25    16    22    1
    26    18    19    1
    27    19    20    1
    28    20    21    1
    29    21    22    1
    30    23    24    1
    31    23    88    1
    32    23    89    1
    33    24    25    1
    34    24    26    1
    35    24    90    1
    36    25    91    1
    37    25    92    1
    38    25    93    1
    39    26    94    1
    40    26    95    1
    41    26    96    1
    42    27    28   ar
    43    28    29   ar
    44    29    30   ar
    45    29    31    1
    46    30    33    1
    47    31    32    1
    48    32    33    1
    49    32    35    1
    50    34    97    1
    51    34    98    1
    52    34    99    1
    53    35    61    1
    54    36    37    1
    55    36    60    1
    56    37    38    1
    57    38    39    1
    58    39    40    1
    59    40    41    1
    60    41    42    1
    61    45   100    1
    62    47   101    1
    63    47   102    1
    64    47   103    1
    65    48   104    1
    66    49   105    1
    67    49   106    1
    68    49   107    1
    69    50   108    1
    70    51    59    1
    71    52   109    1
    72    52   110    1
    73    52   111    1
    74    53    54    1
    75    54    55    2
    76    54    56    1
    77    56   112    1
    78    56   113    1
    79    56   114    1
    80    57   115    1
    81    57   116    1
    82    57   117    1
    83    58   118    1
    84    58   119    1
    85    58   120    1
    86    59   121    1
    87    59   122    1
    88    59   123    1
    89    60    61    2
    90     1    47    1
    91     1    62    1
    92     2    63    1
    93     3    64    1
    94     4    65    1
    95     5     6    1
    96     7     8    2
    97     9    78    1
    98    15    79    1
    99    18    80    1
   100    18    81    1
   101    19    82    1
   102    19    83    1
   103    20    23    1
   104    21    84    1
   105    21    85    1
   106    22    86    1
   107    22    87    1
   108    27    45    1
   109    28    34    1
   110    32    58    1
   111    33    46    2
   112    36    51    1
   113    36    66    1
   114    37    52    1
   115    37    67    1
   116    38    53    1
   117    38    68    1
   118    42    48    1
   119    42    72    1
   120    43    44    2
   121    60    73    1
   122    61    74    1
   123    39    69    1
   124    39    57    1
   125    40    70    1
   126    40    50    1
   127    41    71    1
   128    41    49    1
