@<TRIPOS>MOLECULE
*****
 123 128 0 0 0
SMALL
GASTEIGER

@<TRIPOS>ATOM
     1 C         5.219319   1.442329   0.823398 C.3        1 UNL1     0.0009
     2 C         6.758398   2.14186   0.062525 C.2        1 UNL1     -0.0787
     3 C         8.074679   1.952233   -0.509745 C.2        1 UNL1     -0.0649
     4 C         9.076897   3.115732   -1.222617 C.2        1 UNL1     -0.0542
     5 C         10.175463   3.326187   -2.092064 C.2        1 UNL1     0.0115
     6 C         11.319942   2.615444   -2.865585 C.3        1 UNL1     -0.0348
     7 C         10.403979   4.787773   -2.71539 C.2        1 UNL1     0.2441
     8 O         11.249014   5.565904   -2.29473 O.2        1 UNL1     -0.2702
     9 N         9.750657   5.01488   -3.939213 N.am        1 UNL1     -0.2772
     10 C         8.475693   5.485   -3.722937 C.2        1 UNL1     0.1049
     11 C         7.553333   4.572928   -3.474744 C.2        1 UNL1     0.0801
     12 C         7.184747   7.196781   -2.434293 C.ar        1 UNL1     0.0753
     13 C         6.328322   6.12658   -2.02221 C.ar        1 UNL1     0.0305
     14 C         6.408623   4.802812   -2.635596 C.2        1 UNL1     0.0924
     15 N         7.604264   3.235894   -3.60231 N.pl3        1 UNL1     -0.3170
     16 C         6.281131   2.721422   -3.368025 C.3        1 UNL1     0.1275
     17 N         5.638822   3.733954   -2.451541 N.2        1 UNL1     -0.2557
     18 C         5.522906   2.805172   -4.689305 C.3        1 UNL1     0.0016
     19 C         6.310218   2.052907   -5.750355 C.3        1 UNL1     0.0026
     20 N         6.467352   0.669477   -5.323203 N.3        1 UNL1     -0.3018
     21 C         7.131889   0.489509   -4.030775 C.3        1 UNL1     0.0026
     22 C         6.321739   1.249471   -2.979105 C.3        1 UNL1     0.0016
     23 C         6.935946   -0.198781   -6.384895 C.3        1 UNL1     0.0012
     24 C         5.836414   -0.402188   -7.439129 C.3        1 UNL1     -0.0339
     25 C         5.994926   0.577737   -8.6133 C.3        1 UNL1     -0.0615
     26 C         5.829359   -1.845332   -7.912488 C.3        1 UNL1     -0.0615
     27 C         7.022053   8.485684   -1.931923 C.ar        1 UNL1     0.1347
     28 C         6.017467   8.833035   -1.04637 C.ar        1 UNL1     0.0342
     29 C         5.216992   7.75311   -0.617224 C.ar        1 UNL1     0.1435
     30 C         5.391158   6.449732   -1.084228 C.ar        1 UNL1     0.0774
     31 O         4.128542   7.947499   0.158983 O.3        1 UNL1     -0.4436
     32 C         3.343585   6.757851   -0.012634 C.3        1 UNL1     0.3143
     33 C         4.32789   5.694218   -0.455398 C.2        1 UNL1     0.2504
     34 C         5.626557   10.232699   -0.661362 C.3        1 UNL1     -0.0327
     35 O         2.866581   6.371764   1.282224 O.2        1 UNL1     -0.4528
     36 C         -0.454535   4.631296   0.691426 C.3        1 UNL1     0.0854
     37 C         -0.774464   3.372746   -0.203683 C.3        1 UNL1     0.0236
     38 C         -1.504815   2.167324   0.56136 C.3        1 UNL1     0.1131
     39 C         -0.904899   1.621176   1.919333 C.3        1 UNL1     0.0200
     40 C         0.7373   1.376325   2.079548 C.3        1 UNL1     0.0661
     41 C         1.725749   0.526267   0.9942 C.3        1 UNL1     0.0091
     42 C         3.487355   0.772836   0.545479 C.3        1 UNL1     0.0661
     43 C         8.19529   6.908274   -3.482066 C.2        1 UNL1     0.2131
     44 O         8.6986   7.765083   -4.185838 O.2        1 UNL1     -0.2851
     45 O         7.92648   9.459811   -2.349687 O.3        1 UNL1     -0.5056
     46 O         4.260378   4.494964   -0.303457 O.2        1 UNL1     -0.2836
     47 C         5.488083   1.020258   2.292957 C.3        1 UNL1     -0.0566
     48 O         3.841107   -0.660765   0.682458 O.3        1 UNL1     -0.3909
     49 C         0.966424   0.318316   -0.297185 C.3        1 UNL1     -0.0577
     50 O         1.383067   2.56371   2.492858 O.3        1 UNL1     -0.3910
     51 O         -0.685924   4.479025   2.073708 O.3        1 UNL1     -0.3753
     52 C         0.335182   3.124987   -1.277112 C.3        1 UNL1     -0.0564
     53 O         -2.106898   1.147843   -0.360855 O.3        1 UNL1     -0.4608
     54 C         -2.43239   -0.138896   -0.019844 C.2        1 UNL1     0.3042
     55 O         -1.893145   -1.173946   -0.409364 O.2        1 UNL1     -0.2512
     56 C         -3.542909   -0.231479   0.987572 C.3        1 UNL1     0.0332
     57 C         -1.668583   2.359156   3.115304 C.3        1 UNL1     -0.0567
     58 C         2.363055   7.044479   -1.17364 C.3        1 UNL1     0.0210
     59 C         -1.014651   5.684427   2.762773 C.3        1 UNL1     0.0372
     60 C         0.923557   5.173807   0.544104 C.2        1 UNL1     -0.0208
     61 C         1.799417   5.571364   1.467988 C.2        1 UNL1     0.0882
     62 H         4.800262   2.455116   0.860336 H        1 UNL1     0.0365
     63 H         6.551169   3.211831   0.131 H        1 UNL1     0.0576
     64 H         8.485859   0.955   -0.68169 H        1 UNL1     0.0615
     65 H         8.624547   4.066065   -0.926426 H        1 UNL1     0.0622
     66 H         -1.128403   5.414751   0.317063 H        1 UNL1     0.0645
     67 H         -1.57494   3.720864   -0.879414 H        1 UNL1     0.0362
     68 H         -2.445094   2.66805   0.838256 H        1 UNL1     0.0741
     69 H         -1.310997   0.636356   2.108071 H        1 UNL1     0.0359
     70 H         0.74691   0.729285   2.977494 H        1 UNL1     0.0600
     71 H         1.676527   -0.486378   1.44039 H        1 UNL1     0.0348
     72 H         3.344447   1.287225   1.506883 H        1 UNL1     0.0602
     73 H         1.12473   5.341529   -0.484802 H        1 UNL1     0.0628
     74 H         1.695035   5.384891   2.537366 H        1 UNL1     0.1022
     75 H         11.285334   1.512994   -2.691114 H        1 UNL1     0.0279
     76 H         11.286409   2.682055   -3.950715 H        1 UNL1     0.0279
     77 H         12.316969   2.865655   -2.474391 H        1 UNL1     0.0279
     78 H         9.671387   4.139337   -4.452261 H        1 UNL1     0.1553
     79 H         8.282851   2.755443   -4.16411 H        1 UNL1     0.1484
     80 H         4.522005   2.377514   -4.554872 H        1 UNL1     0.0317
     81 H         5.380084   3.847751   -4.993086 H        1 UNL1     0.0317
     82 H         7.286847   2.521559   -5.941334 H        1 UNL1     0.0428
     83 H         5.752753   2.126832   -6.684603 H        1 UNL1     0.0428
     84 H         7.165861   -0.552017   -3.696287 H        1 UNL1     0.0428
     85 H         8.18747   0.792272   -4.068212 H        1 UNL1     0.0428
     86 H         6.757745   0.987651   -2.032882 H        1 UNL1     0.0317
     87 H         5.308343   0.834717   -2.915037 H        1 UNL1     0.0317
     88 H         7.796528   0.284019   -6.866141 H        1 UNL1     0.0429
     89 H         7.286864   -1.160152   -5.988161 H        1 UNL1     0.0429
     90 H         4.857635   -0.234673   -6.974216 H        1 UNL1     0.0308
     91 H         6.973887   0.471879   -9.090303 H        1 UNL1     0.0233
     92 H         5.213183   0.416459   -9.359274 H        1 UNL1     0.0233
     93 H         5.905949   1.624561   -8.298535 H        1 UNL1     0.0233
     94 H         5.184133   -1.951434   -8.791272 H        1 UNL1     0.0233
     95 H         6.840212   -2.149947   -8.197703 H        1 UNL1     0.0233
     96 H         5.464446   -2.519375   -7.132441 H        1 UNL1     0.0233
     97 H         4.78246   10.24671   0.021672 H        1 UNL1     0.0280
     98 H         6.438676   10.762354   -0.146402 H        1 UNL1     0.0280
     99 H         5.349467   10.800214   -1.564823 H        1 UNL1     0.0280
     100 H         7.530166   10.230008   -2.717593 H        1 UNL1     0.2922
     101 H         4.56729   0.650421   2.743531 H        1 UNL1     0.0236
     102 H         5.946726   1.808967   2.888414 H        1 UNL1     0.0236
     103 H         6.191531   0.173472   2.358581 H        1 UNL1     0.0236
     104 H         4.190716   -0.793333   1.585326 H        1 UNL1     0.2098
     105 H         0.850504   1.215838   -0.899538 H        1 UNL1     0.0234
     106 H         1.330346   -0.504829   -0.911938 H        1 UNL1     0.0234
     107 H         0.0   -0.0   0.0 H        1 UNL1     0.0234
     108 H         1.271532   3.218802   1.77719 H        1 UNL1     0.2098
     109 H         1.322333   2.957825   -0.824011 H        1 UNL1     0.0234
     110 H         0.099531   2.299228   -1.957063 H        1 UNL1     0.0234
     111 H         0.45594   3.990848   -1.941678 H        1 UNL1     0.0234
     112 H         -3.74888   -1.280932   1.219027 H        1 UNL1     0.0342
     113 H         -3.322711   0.332332   1.89282 H        1 UNL1     0.0342
     114 H         -4.449234   0.198758   0.539648 H        1 UNL1     0.0342
     115 H         -2.748342   2.156751   3.096898 H        1 UNL1     0.0234
     116 H         -1.301342   2.092197   4.108238 H        1 UNL1     0.0234
     117 H         -1.656607   3.459566   3.032256 H        1 UNL1     0.0234
     118 H         1.467486   7.593637   -0.833952 H        1 UNL1     0.0309
     119 H         2.825621   7.59095   -2.001652 H        1 UNL1     0.0309
     120 H         1.947891   6.12892   -1.608952 H        1 UNL1     0.0309
     121 H         -0.165049   6.3602   2.668622 H        1 UNL1     0.0524
     122 H         -1.891413   6.190511   2.325503 H        1 UNL1     0.0524
     123 H         -1.213743   5.476261   3.810209 H        1 UNL1     0.0524
@<TRIPOS>BOND
     1     1     2    1
     2     1    42    1
     3     2     3    2
     4     3     4    1
     5     4     5    2
     6     5     7    1
     7     6    75    1
     8     6    76    1
     9     6    77    1
    10     7     9   am
    11     9    10    1
    12    10    11    2
    13    10    43    1
    14    11    14    1
    15    11    15    1
    16    12    13   ar
    17    12    27   ar
    18    12    43    1
    19    13    14    1
    20    13    30   ar
    21    14    17    2
    22    15    16    1
    23    16    17    1
    24    16    18    1
    25    16    22    1
    26    18    19    1
    27    19    20    1
    28    20    21    1
    29    21    22    1
    30    23    24    1
    31    23    88    1
    32    23    89    1
    33    24    25    1
    34    24    26    1
    35    24    90    1
    36    25    91    1
    37    25    92    1
    38    25    93    1
    39    26    94    1
    40    26    95    1
    41    26    96    1
    42    27    28   ar
    43    28    29   ar
    44    29    30   ar
    45    29    31    1
    46    30    33    1
    47    31    32    1
    48    32    33    1
    49    32    35    1
    50    34    97    1
    51    34    98    1
    52    34    99    1
    53    35    61    1
    54    36    37    1
    55    36    60    1
    56    37    38    1
    57    38    39    1
    58    39    40    1
    59    40    41    1
    60    41    42    1
    61    45   100    1
    62    47   101    1
    63    47   102    1
    64    47   103    1
    65    48   104    1
    66    49   105    1
    67    49   106    1
    68    49   107    1
    69    50   108    1
    70    51    59    1
    71    52   109    1
    72    52   110    1
    73    52   111    1
    74    53    54    1
    75    54    55    2
    76    54    56    1
    77    56   112    1
    78    56   113    1
    79    56   114    1
    80    57   115    1
    81    57   116    1
    82    57   117    1
    83    58   118    1
    84    58   119    1
    85    58   120    1
    86    59   121    1
    87    59   122    1
    88    59   123    1
    89    60    61    2
    90     1    47    1
    91     1    62    1
    92     2    63    1
    93     3    64    1
    94     4    65    1
    95     5     6    1
    96     7     8    2
    97     9    78    1
    98    15    79    1
    99    18    80    1
   100    18    81    1
   101    19    82    1
   102    19    83    1
   103    20    23    1
   104    21    84    1
   105    21    85    1
   106    22    86    1
   107    22    87    1
   108    27    45    1
   109    28    34    1
   110    32    58    1
   111    33    46    2
   112    36    51    1
   113    36    66    1
   114    37    52    1
   115    37    67    1
   116    38    53    1
   117    38    68    1
   118    42    48    1
   119    42    72    1
   120    43    44    2
   121    60    73    1
   122    61    74    1
   123    39    69    1
   124    39    57    1
   125    40    70    1
   126    40    50    1
   127    41    71    1
   128    41    49    1
