@<TRIPOS>MOLECULE
*****
 123 128 0 0 0
SMALL
GASTEIGER

@<TRIPOS>ATOM
     1 C         1.531713   2.191605   4.675038 C.3        1 UNL1     0.0009
     2 C         1.104639   3.392858   6.021008 C.2        1 UNL1     -0.0787
     3 C         1.175923   4.724099   6.585598 C.2        1 UNL1     -0.0649
     4 C         0.386131   5.314364   7.961887 C.2        1 UNL1     -0.0542
     5 C         -0.047368   6.47923   8.641772 C.2        1 UNL1     0.0115
     6 C         0.048521   8.02958   8.6651 C.3        1 UNL1     -0.0348
     7 C         -1.168024   6.341013   9.782831 C.2        1 UNL1     0.2441
     8 O         -0.90731   6.36411   10.977829 O.2        1 UNL1     -0.2702
     9 N         -2.492195   6.454012   9.324625 N.am        1 UNL1     -0.2772
     10 C         -2.971573   5.224927   8.933639 C.2        1 UNL1     0.1049
     11 C         -2.651399   4.836904   7.712513 C.2        1 UNL1     0.0801
     12 C         -3.171981   2.84543   9.678732 C.ar        1 UNL1     0.0753
     13 C         -2.621374   2.483294   8.408182 C.ar        1 UNL1     0.0305
     14 C         -2.46652   3.46206   7.334362 C.2        1 UNL1     0.0924
     15 N         -2.105274   5.532551   6.700411 N.pl3        1 UNL1     -0.3170
     16 C         -2.120555   4.693295   5.531792 C.3        1 UNL1     0.1275
     17 N         -2.072527   3.286526   6.076234 N.2        1 UNL1     -0.2557
     18 C         -3.491746   4.849003   4.881183 C.3        1 UNL1     0.0016
     19 C         -3.731214   6.323531   4.59832 C.3        1 UNL1     0.0026
     20 N         -2.676108   6.808594   3.719404 N.3        1 UNL1     -0.3018
     21 C         -1.314656   6.644893   4.233232 C.3        1 UNL1     0.0026
     22 C         -1.094208   5.155984   4.506083 C.3        1 UNL1     0.0016
     23 C         -2.969412   8.108973   3.150518 C.3        1 UNL1     0.0012
     24 C         -1.857519   8.535059   2.178973 C.3        1 UNL1     -0.0339
     25 C         -2.323545   9.671969   1.254683 C.3        1 UNL1     -0.0615
     26 C         -0.608897   8.920275   2.953138 C.3        1 UNL1     -0.0615
     27 C         -3.428564   1.884983   10.654347 C.ar        1 UNL1     0.1347
     28 C         -3.213965   0.531952   10.461202 C.ar        1 UNL1     0.0342
     29 C         -2.625894   0.204289   9.221052 C.ar        1 UNL1     0.1435
     30 C         -2.329816   1.159712   8.248054 C.ar        1 UNL1     0.0774
     31 O         -2.456294   -1.080344   8.839006 O.3        1 UNL1     -0.4436
     32 C         -2.299457   -1.017047   7.413429 C.3        1 UNL1     0.3143
     33 C         -1.822088   0.392841   7.129624 C.2        1 UNL1     0.2504
     34 C         -3.695832   -0.57407   11.358209 C.3        1 UNL1     -0.0327
     35 O         -1.226021   -1.89935   7.06339 O.2        1 UNL1     -0.4528
     36 C         -2.010299   -3.157266   3.569017 C.3        1 UNL1     0.0854
     37 C         -2.251198   -2.335046   2.24484 C.3        1 UNL1     0.0236
     38 C         -1.30687   -2.743183   1.014631 C.3        1 UNL1     0.1131
     39 C         0.259172   -2.827451   1.221224 C.3        1 UNL1     0.0200
     40 C         1.062719   -1.645495   2.081301 C.3        1 UNL1     0.0661
     41 C         0.918041   0.027922   1.843914 C.3        1 UNL1     0.0091
     42 C         1.034575   1.413992   3.040005 C.3        1 UNL1     0.0661
     43 C         -3.544279   4.266293   9.890395 C.2        1 UNL1     0.2131
     44 O         -4.350938   4.633508   10.725376 O.2        1 UNL1     -0.2851
     45 O         -3.922043   2.32657   11.880282 O.3        1 UNL1     -0.5056
     46 O         -1.154116   0.789639   6.201066 O.2        1 UNL1     -0.2836
     47 C         3.01736   1.756646   4.791851 C.3        1 UNL1     -0.0566
     48 O         1.944253   2.220525   2.190825 O.3        1 UNL1     -0.3909
     49 C         -0.291217   0.294889   0.97563 C.3        1 UNL1     -0.0577
     50 O         1.056198   -1.939742   3.463726 O.3        1 UNL1     -0.3910
     51 O         -0.893029   -4.016991   3.565688 O.3        1 UNL1     -0.3753
     52 C         -2.629991   -0.847821   2.544219 C.3        1 UNL1     -0.0564
     53 O         -1.778687   -2.211082   -0.306952 O.3        1 UNL1     -0.4608
     54 C         -2.994781   -2.47372   -0.881467 C.2        1 UNL1     0.3042
     55 O         -3.354425   -2.201405   -2.026167 O.2        1 UNL1     -0.2512
     56 C         -3.933283   -3.229113   0.015924 C.3        1 UNL1     0.0332
     57 C         0.623107   -4.353435   1.532828 C.3        1 UNL1     -0.0567
     58 C         -3.711791   -1.19658   6.809599 C.3        1 UNL1     0.0210
     59 C         -0.365353   -4.309105   2.272594 C.3        1 UNL1     0.0372
     60 C         -1.918927   -2.339465   4.809184 C.2        1 UNL1     -0.0208
     61 C         -1.058587   -2.404626   5.826196 C.2        1 UNL1     0.0882
     62 H         0.940345   1.428275   5.194963 H        1 UNL1     0.0365
     63 H         0.583763   2.736872   6.721609 H        1 UNL1     0.0576
     64 H         1.647501   5.549523   6.047642 H        1 UNL1     0.0615
     65 H         0.023777   4.411878   8.461589 H        1 UNL1     0.0622
     66 H         -2.914051   -3.772877   3.679936 H        1 UNL1     0.0645
     67 H         -3.236979   -2.68209   1.889375 H        1 UNL1     0.0362
     68 H         -1.637833   -3.782296   0.865534 H        1 UNL1     0.0741
     69 H         0.740676   -2.785139   0.253354 H        1 UNL1     0.0359
     70 H         2.102112   -1.84924   1.760038 H        1 UNL1     0.0600
     71 H         1.743158   0.193009   1.123577 H        1 UNL1     0.0348
     72 H         1.524318   0.55546   3.522074 H        1 UNL1     0.0602
     73 H         -2.766474   -1.703004   4.871071 H        1 UNL1     0.0628
     74 H         -0.13641   -2.986649   5.817456 H        1 UNL1     0.1022
     75 H         0.657016   8.397709   7.804141 H        1 UNL1     0.0279
     76 H         -0.884426   8.575237   8.542884 H        1 UNL1     0.0279
     77 H         0.630333   8.406875   9.518823 H        1 UNL1     0.0279
     78 H         -2.521988   7.066918   8.512506 H        1 UNL1     0.1553
     79 H         -2.104359   6.534748   6.650087 H        1 UNL1     0.1484
     80 H         -3.519894   4.254716   3.959881 H        1 UNL1     0.0317
     81 H         -4.280439   4.456168   5.531795 H        1 UNL1     0.0317
     82 H         -3.77667   6.913784   5.525384 H        1 UNL1     0.0428
     83 H         -4.714954   6.412039   4.136291 H        1 UNL1     0.0428
     84 H         -0.538447   6.943259   3.521692 H        1 UNL1     0.0428
     85 H         -1.130003   7.27938   5.111097 H        1 UNL1     0.0428
     86 H         -0.05307   5.057683   4.751757 H        1 UNL1     0.0317
     87 H         -1.189908   4.586008   3.573846 H        1 UNL1     0.0317
     88 H         -3.911411   8.032753   2.591839 H        1 UNL1     0.0429
     89 H         -3.12045   8.862285   3.934408 H        1 UNL1     0.0429
     90 H         -1.572941   7.676087   1.559783 H        1 UNL1     0.0308
     91 H         -1.81903   10.612475   1.495547 H        1 UNL1     0.0233
     92 H         -2.134339   9.421242   0.208287 H        1 UNL1     0.0233
     93 H         -3.401186   9.85962   1.334132 H        1 UNL1     0.0233
     94 H         -0.377127   9.978886   2.793568 H        1 UNL1     0.0233
     95 H         -0.771444   8.768441   4.023879 H        1 UNL1     0.0233
     96 H         0.2542   8.326457   2.639432 H        1 UNL1     0.0233
     97 H         -3.849806   -1.501546   10.814785 H        1 UNL1     0.0280
     98 H         -2.974212   -0.807131   12.152063 H        1 UNL1     0.0280
     99 H         -4.652266   -0.282612   11.8223 H        1 UNL1     0.0280
     100 H         -4.024843   1.650938   12.527257 H        1 UNL1     0.2922
     101 H         3.105165   0.935207   5.502615 H        1 UNL1     0.0236
     102 H         3.68747   2.580729   5.034384 H        1 UNL1     0.0236
     103 H         3.405267   1.348809   3.843489 H        1 UNL1     0.0236
     104 H         1.89356   1.863667   1.282501 H        1 UNL1     0.2098
     105 H         -1.174202   -0.278353   1.246819 H        1 UNL1     0.0234
     106 H         -0.545472   1.348463   0.86047 H        1 UNL1     0.0234
     107 H         0.0   0.0   -0.0 H        1 UNL1     0.0234
     108 H         1.387333   -2.852612   3.567586 H        1 UNL1     0.2098
     109 H         -3.715016   -0.707764   2.648223 H        1 UNL1     0.0234
     110 H         -2.122121   -0.44356   3.426481 H        1 UNL1     0.0234
     111 H         -2.32077   -0.179546   1.729519 H        1 UNL1     0.0234
     112 H         -4.216366   -2.604522   0.868623 H        1 UNL1     0.0342
     113 H         -4.813656   -3.583895   -0.517851 H        1 UNL1     0.0342
     114 H         -3.402537   -4.109134   0.404557 H        1 UNL1     0.0342
     115 H         1.619056   -4.451358   1.986354 H        1 UNL1     0.0234
     116 H         -0.08868   -4.853817   2.192394 H        1 UNL1     0.0234
     117 H         0.740073   -4.971755   0.626218 H        1 UNL1     0.0234
     118 H         -4.43209   -0.464506   7.214868 H        1 UNL1     0.0309
     119 H         -3.721846   -1.141439   5.716411 H        1 UNL1     0.0309
     120 H         -4.160099   -2.16199   7.068656 H        1 UNL1     0.0309
     121 H         -0.470387   -5.381146   2.108118 H        1 UNL1     0.0524
     122 H         -0.918005   -3.794266   1.46913 H        1 UNL1     0.0524
     123 H         0.6812   -4.022614   2.220223 H        1 UNL1     0.0524
@<TRIPOS>BOND
     1     1     2    1
     2     1    42    1
     3     2     3    2
     4     3     4    1
     5     4     5    2
     6     5     7    1
     7     6    75    1
     8     6    76    1
     9     6    77    1
    10     7     9   am
    11     9    10    1
    12    10    11    2
    13    10    43    1
    14    11    14    1
    15    11    15    1
    16    12    13   ar
    17    12    27   ar
    18    12    43    1
    19    13    14    1
    20    13    30   ar
    21    14    17    2
    22    15    16    1
    23    16    17    1
    24    16    18    1
    25    16    22    1
    26    18    19    1
    27    19    20    1
    28    20    21    1
    29    21    22    1
    30    23    24    1
    31    23    88    1
    32    23    89    1
    33    24    25    1
    34    24    26    1
    35    24    90    1
    36    25    91    1
    37    25    92    1
    38    25    93    1
    39    26    94    1
    40    26    95    1
    41    26    96    1
    42    27    28   ar
    43    28    29   ar
    44    29    30   ar
    45    29    31    1
    46    30    33    1
    47    31    32    1
    48    32    33    1
    49    32    35    1
    50    34    97    1
    51    34    98    1
    52    34    99    1
    53    35    61    1
    54    36    37    1
    55    36    60    1
    56    37    38    1
    57    38    39    1
    58    39    40    1
    59    40    41    1
    60    41    42    1
    61    45   100    1
    62    47   101    1
    63    47   102    1
    64    47   103    1
    65    48   104    1
    66    49   105    1
    67    49   106    1
    68    49   107    1
    69    50   108    1
    70    51    59    1
    71    52   109    1
    72    52   110    1
    73    52   111    1
    74    53    54    1
    75    54    55    2
    76    54    56    1
    77    56   112    1
    78    56   113    1
    79    56   114    1
    80    57   115    1
    81    57   116    1
    82    57   117    1
    83    58   118    1
    84    58   119    1
    85    58   120    1
    86    59   121    1
    87    59   122    1
    88    59   123    1
    89    60    61    2
    90     1    47    1
    91     1    62    1
    92     2    63    1
    93     3    64    1
    94     4    65    1
    95     5     6    1
    96     7     8    2
    97     9    78    1
    98    15    79    1
    99    18    80    1
   100    18    81    1
   101    19    82    1
   102    19    83    1
   103    20    23    1
   104    21    84    1
   105    21    85    1
   106    22    86    1
   107    22    87    1
   108    27    45    1
   109    28    34    1
   110    32    58    1
   111    33    46    2
   112    36    51    1
   113    36    66    1
   114    37    52    1
   115    37    67    1
   116    38    53    1
   117    38    68    1
   118    42    48    1
   119    42    72    1
   120    43    44    2
   121    60    73    1
   122    61    74    1
   123    39    69    1
   124    39    57    1
   125    40    70    1
   126    40    50    1
   127    41    71    1
   128    41    49    1
