@<TRIPOS>MOLECULE
*****
 123 128 0 0 0
SMALL
GASTEIGER

@<TRIPOS>ATOM
     1 C         5.166391   1.760304   0.457178 C.3        1 UNL1     0.0009
     2 C         6.595843   2.569036   -0.402854 C.2        1 UNL1     -0.0787
     3 C         7.873641   2.473247   -1.076726 C.2        1 UNL1     -0.0649
     4 C         8.743539   3.709834   -1.838623 C.2        1 UNL1     -0.0542
     5 C         9.756891   4.004147   -2.783914 C.2        1 UNL1     0.0115
     6 C         10.88088   3.380651   -3.656396 C.3        1 UNL1     -0.0348
     7 C         9.845114   5.487253   -3.391864 C.2        1 UNL1     0.2441
     8 O         10.669609   6.310909   -3.019945 O.2        1 UNL1     -0.2702
     9 N         9.086959   5.691905   -4.557827 N.am        1 UNL1     -0.2772
     10 C         7.805441   6.075981   -4.236079 C.2        1 UNL1     0.1049
     11 C         6.96366   5.102903   -3.938178 C.2        1 UNL1     0.0801
     12 C         6.512619   7.680631   -2.817967 C.ar        1 UNL1     0.0753
     13 C         5.758901   6.55133   -2.36498 C.ar        1 UNL1     0.0305
     14 C         5.874537   5.24551   -3.010357 C.2        1 UNL1     0.0924
     15 N         7.088151   3.774101   -4.097291 N.pl3        1 UNL1     -0.3170
     16 C         5.821638   3.172357   -3.774642 C.3        1 UNL1     0.1275
     17 N         5.189451   4.126779   -2.791209 N.2        1 UNL1     -0.2557
     18 C         4.960584   3.228835   -5.032855 C.3        1 UNL1     0.0016
     19 C         5.709707   2.545725   -6.165889 C.3        1 UNL1     0.0026
     20 N         5.985314   1.16844   -5.780983 N.3        1 UNL1     -0.3018
     21 C         6.756943   1.01043   -4.546482 C.3        1 UNL1     0.0026
     22 C         5.983894   1.699911   -3.420914 C.3        1 UNL1     0.0016
     23 C         6.424485   0.349221   -6.893032 C.3        1 UNL1     0.0012
     24 C         5.263318   0.09666   -7.867536 C.3        1 UNL1     -0.0339
     25 C         5.348575   1.018747   -9.09495 C.3        1 UNL1     -0.0615
     26 C         5.229989   -1.367582   -8.269612 C.3        1 UNL1     -0.0615
     27 C         6.308662   8.948193   -2.277776 C.ar        1 UNL1     0.1347
     28 C         5.35519   9.216219   -1.311803 C.ar        1 UNL1     0.0342
     29 C         4.659064   8.080517   -0.846234 C.ar        1 UNL1     0.1435
     30 C         4.878053   6.798674   -1.352338 C.ar        1 UNL1     0.0774
     31 O         3.623319   8.192322   0.013846 O.3        1 UNL1     -0.4436
     32 C         2.90343   6.957854   -0.122978 C.3        1 UNL1     0.3143
     33 C         3.915454   5.96664   -0.661042 C.2        1 UNL1     0.2504
     34 C         4.908213   10.581608   -0.869056 C.3        1 UNL1     -0.0327
     35 O         2.55219   6.521147   1.195798 O.2        1 UNL1     -0.4528
     36 C         -0.68912   4.581685   0.820985 C.3        1 UNL1     0.0854
     37 C         -0.997429   3.319911   -0.073662 C.3        1 UNL1     0.0236
     38 C         -1.590173   2.058031   0.718839 C.3        1 UNL1     0.1131
     39 C         -0.85493   1.529445   2.015868 C.3        1 UNL1     0.0200
     40 C         0.806805   1.387534   2.046462 C.3        1 UNL1     0.0661
     41 C         1.760328   0.620097   0.871964 C.3        1 UNL1     0.0091
     42 C         3.46347   0.986029   0.296806 C.3        1 UNL1     0.0661
     43 C         7.455901   7.474328   -3.944873 C.2        1 UNL1     0.2131
     44 O         7.849211   8.372845   -4.666476 O.2        1 UNL1     -0.2851
     45 O         7.115716   9.984789   -2.742069 O.3        1 UNL1     -0.5056
     46 O         3.934901   4.763221   -0.52967 O.2        1 UNL1     -0.2836
     47 C         5.572906   1.332546   1.893057 C.3        1 UNL1     -0.0566
     48 O         3.915618   -0.42405   0.376533 O.3        1 UNL1     -0.3909
     49 C         0.91871   0.384956   -0.362492 C.3        1 UNL1     -0.0577
     50 O         1.406861   2.606932   2.434696 O.3        1 UNL1     -0.3910
     51 O         -0.803864   4.392574   2.213285 O.3        1 UNL1     -0.3753
     52 C         0.039955   3.161018   -1.232773 C.3        1 UNL1     -0.0564
     53 O         -2.196277   1.017203   -0.176505 O.3        1 UNL1     -0.4608
     54 C         -2.394511   -0.297929   0.15374 C.2        1 UNL1     0.3042
     55 O         -1.720355   -1.265743   -0.196529 O.2        1 UNL1     -0.2512
     56 C         -3.544861   -0.514773   1.095221 C.3        1 UNL1     0.0332
     57 C         -1.569301   2.197629   3.281324 C.3        1 UNL1     -0.0567
     58 C         1.820768   7.19996   -1.200362 C.3        1 UNL1     0.0210
     59 C         -1.114867   5.571341   2.95467 C.3        1 UNL1     0.0372
     60 C         0.636998   5.213513   0.581471 C.2        1 UNL1     -0.0208
     61 C         1.554547   5.651249   1.444741 C.2        1 UNL1     0.0882
     62 H         4.688902   2.743494   0.546921 H        1 UNL1     0.0365
     63 H         6.327987   3.622319   -0.296462 H        1 UNL1     0.0576
     64 H         8.331967   1.50726   -1.300138 H        1 UNL1     0.0615
     65 H         8.256705   4.62438   -1.489223 H        1 UNL1     0.0622
     66 H         -1.437367   5.326409   0.515111 H        1 UNL1     0.0645
     67 H         -1.867555   3.627029   -0.679566 H        1 UNL1     0.0362
     68 H         -2.535912   2.493064   1.076395 H        1 UNL1     0.0741
     69 H         -1.182993   0.517749   2.213992 H        1 UNL1     0.0359
     70 H         0.925673   0.72798   2.927325 H        1 UNL1     0.0600
     71 H         1.808871   -0.400713   1.29922 H        1 UNL1     0.0348
     72 H         3.362822   1.474596   1.276851 H        1 UNL1     0.0602
     73 H         0.747804   5.41039   -0.455934 H        1 UNL1     0.0628
     74 H         1.544331   5.441196   2.514793 H        1 UNL1     0.1022
     75 H         10.877166   2.267787   -3.563902 H        1 UNL1     0.0279
     76 H         10.798198   3.526675   -4.731063 H        1 UNL1     0.0279
     77 H         11.888688   3.625278   -3.290089 H        1 UNL1     0.0279
     78 H         9.023478   4.821505   -5.081708 H        1 UNL1     0.1553
     79 H         7.750369   3.347179   -4.718691 H        1 UNL1     0.1484
     80 H         4.001639   2.735936   -4.832256 H        1 UNL1     0.0317
     81 H         4.729988   4.26493   -5.303012 H        1 UNL1     0.0317
     82 H         6.637601   3.078893   -6.420167 H        1 UNL1     0.0428
     83 H         5.078719   2.598971   -7.053623 H        1 UNL1     0.0428
     84 H         6.881512   -0.032071   -4.237473 H        1 UNL1     0.0428
     85 H         7.785545   1.380632   -4.657137 H        1 UNL1     0.0428
     86 H         6.506684   1.451221   -2.51602 H        1 UNL1     0.0317
     87 H         5.006313   1.220229   -3.289248 H        1 UNL1     0.0317
     88 H         7.215965   0.892421   -7.425749 H        1 UNL1     0.0429
     89 H         6.861379   -0.595398   -6.544329 H        1 UNL1     0.0429
     90 H         4.314291   0.287555   -7.352638 H        1 UNL1     0.0308
     91 H         6.300826   0.89564   -9.619513 H        1 UNL1     0.0233
     92 H         4.528588   0.81625   -9.787932 H        1 UNL1     0.0233
     93 H         5.267723   2.079188   -8.827063 H        1 UNL1     0.0233
     94 H         4.56982   -1.507403   -9.132434 H        1 UNL1     0.0233
     95 H         6.232201   -1.699685   -8.55464 H        1 UNL1     0.0233
     96 H         4.868473   -1.997731   -7.452185 H        1 UNL1     0.0233
     97 H         4.06482   10.532891   -0.186747 H        1 UNL1     0.0280
     98 H         5.698638   11.121786   -0.331757 H        1 UNL1     0.0280
     99 H         4.607589   11.174634   -1.748284 H        1 UNL1     0.0280
     100 H         6.648669   10.762323   -2.99293 H        1 UNL1     0.2922
     101 H         4.69127   1.001655   2.441588 H        1 UNL1     0.0236
     102 H         6.123287   2.104046   2.430507 H        1 UNL1     0.0236
     103 H         6.245092   0.458275   1.890044 H        1 UNL1     0.0236
     104 H         4.253192   -0.574853   1.281117 H        1 UNL1     0.2098
     105 H         0.700429   1.282971   -0.934972 H        1 UNL1     0.0234
     106 H         1.285587   -0.402665   -1.020505 H        1 UNL1     0.0234
     107 H         0.0   -0.0   0.0 H        1 UNL1     0.0234
     108 H         1.256266   3.247148   1.712747 H        1 UNL1     0.2098
     109 H         1.068876   3.062396   -0.859534 H        1 UNL1     0.0234
     110 H         -0.188324   2.325404   -1.903132 H        1 UNL1     0.0234
     111 H         0.046207   4.038222   -1.893395 H        1 UNL1     0.0234
     112 H         -3.634934   -1.578852   1.333901 H        1 UNL1     0.0342
     113 H         -3.450833   0.082237   2.00108 H        1 UNL1     0.0342
     114 H         -4.467866   -0.204462   0.586365 H        1 UNL1     0.0342
     115 H         -2.656644   2.040602   3.266599 H        1 UNL1     0.0234
     116 H         -1.198359   1.836412   4.24256 H        1 UNL1     0.0234
     117 H         -1.513221   3.299792   3.287034 H        1 UNL1     0.0234
     118 H         0.919455   7.680927   -0.781659 H        1 UNL1     0.0309
     119 H         2.182128   7.792114   -2.047105 H        1 UNL1     0.0309
     120 H         1.434798   6.267018   -1.625515 H        1 UNL1     0.0309
     121 H         -0.735557   5.43386   3.966885 H        1 UNL1     0.0524
     122 H         -0.628721   6.468704   2.537011 H        1 UNL1     0.0524
     123 H         -2.189371   5.729795   2.975334 H        1 UNL1     0.0524
@<TRIPOS>BOND
     1     1     2    1
     2     1    42    1
     3     2     3    2
     4     3     4    1
     5     4     5    2
     6     5     7    1
     7     6    75    1
     8     6    76    1
     9     6    77    1
    10     7     9   am
    11     9    10    1
    12    10    11    2
    13    10    43    1
    14    11    14    1
    15    11    15    1
    16    12    13   ar
    17    12    27   ar
    18    12    43    1
    19    13    14    1
    20    13    30   ar
    21    14    17    2
    22    15    16    1
    23    16    17    1
    24    16    18    1
    25    16    22    1
    26    18    19    1
    27    19    20    1
    28    20    21    1
    29    21    22    1
    30    23    24    1
    31    23    88    1
    32    23    89    1
    33    24    25    1
    34    24    26    1
    35    24    90    1
    36    25    91    1
    37    25    92    1
    38    25    93    1
    39    26    94    1
    40    26    95    1
    41    26    96    1
    42    27    28   ar
    43    28    29   ar
    44    29    30   ar
    45    29    31    1
    46    30    33    1
    47    31    32    1
    48    32    33    1
    49    32    35    1
    50    34    97    1
    51    34    98    1
    52    34    99    1
    53    35    61    1
    54    36    37    1
    55    36    60    1
    56    37    38    1
    57    38    39    1
    58    39    40    1
    59    40    41    1
    60    41    42    1
    61    45   100    1
    62    47   101    1
    63    47   102    1
    64    47   103    1
    65    48   104    1
    66    49   105    1
    67    49   106    1
    68    49   107    1
    69    50   108    1
    70    51    59    1
    71    52   109    1
    72    52   110    1
    73    52   111    1
    74    53    54    1
    75    54    55    2
    76    54    56    1
    77    56   112    1
    78    56   113    1
    79    56   114    1
    80    57   115    1
    81    57   116    1
    82    57   117    1
    83    58   118    1
    84    58   119    1
    85    58   120    1
    86    59   121    1
    87    59   122    1
    88    59   123    1
    89    60    61    2
    90     1    47    1
    91     1    62    1
    92     2    63    1
    93     3    64    1
    94     4    65    1
    95     5     6    1
    96     7     8    2
    97     9    78    1
    98    15    79    1
    99    18    80    1
   100    18    81    1
   101    19    82    1
   102    19    83    1
   103    20    23    1
   104    21    84    1
   105    21    85    1
   106    22    86    1
   107    22    87    1
   108    27    45    1
   109    28    34    1
   110    32    58    1
   111    33    46    2
   112    36    51    1
   113    36    66    1
   114    37    52    1
   115    37    67    1
   116    38    53    1
   117    38    68    1
   118    42    48    1
   119    42    72    1
   120    43    44    2
   121    60    73    1
   122    61    74    1
   123    39    69    1
   124    39    57    1
   125    40    70    1
   126    40    50    1
   127    41    71    1
   128    41    49    1
