@<TRIPOS>MOLECULE
*****
 123 128 0 0 0
SMALL
GASTEIGER

@<TRIPOS>ATOM
     1 C         4.091361   0.672706   -0.03158 C.3        1 UNL1     0.0009
     2 C         4.960906   2.309708   -0.065543 C.2        1 UNL1     -0.0787
     3 C         5.655361   3.348144   -0.797272 C.2        1 UNL1     -0.0649
     4 C         6.179544   4.852404   -0.223869 C.2        1 UNL1     -0.0542
     5 C         6.573628   6.162327   -0.592483 C.2        1 UNL1     0.0115
     6 C         6.94938   7.069591   -1.79623 C.3        1 UNL1     -0.0348
     7 C         6.567235   7.317978   0.521707 C.2        1 UNL1     0.2441
     8 O         7.584674   7.720365   1.068908 O.2        1 UNL1     -0.2702
     9 N         5.35315   8.016934   0.638358 N.am        1 UNL1     -0.2772
     10 C         4.516629   7.381386   1.526971 C.2        1 UNL1     0.1049
     11 C         3.813886   6.372375   1.045025 C.2        1 UNL1     0.0801
     12 C         4.447225   6.384636   3.820223 C.ar        1 UNL1     0.0753
     13 C         3.87437   5.222263   3.212495 C.ar        1 UNL1     0.0305
     14 C         3.418334   5.230619   1.824326 C.2        1 UNL1     0.0924
     15 N         3.618034   5.98584   -0.22728 N.pl3        1 UNL1     -0.3170
     16 C         2.634461   4.935698   -0.221024 C.3        1 UNL1     0.1275
     17 N         2.781061   4.288767   1.134599 N.2        1 UNL1     -0.2557
     18 C         1.261851   5.601742   -0.226194 C.3        1 UNL1     0.0016
     19 C         1.177881   6.533406   -1.424752 C.3        1 UNL1     0.0026
     20 N         1.38717   5.75509   -2.637786 N.3        1 UNL1     -0.3018
     21 C         2.65622   5.026909   -2.698052 C.3        1 UNL1     0.0026
     22 C         2.717334   4.093811   -1.487478 C.3        1 UNL1     0.0016
     23 C         1.033718   6.48087   -3.841513 C.3        1 UNL1     0.0012
     24 C         0.068804   7.631051   -3.513215 C.3        1 UNL1     -0.0339
     25 C         0.732674   9.000993   -3.72907 C.3        1 UNL1     -0.0615
     26 C         -1.20427   7.491934   -4.329738 C.3        1 UNL1     -0.0615
     27 C         4.767911   6.406731   5.175506 C.ar        1 UNL1     0.1347
     28 C         4.525961   5.345298   6.029246 C.ar        1 UNL1     0.0342
     29 C         4.006728   4.194493   5.399002 C.ar        1 UNL1     0.1435
     30 C         3.714242   4.14541   4.035454 C.ar        1 UNL1     0.0774
     31 O         3.614948   3.116351   6.112532 O.3        1 UNL1     -0.4436
     32 C         2.742071   2.395097   5.230063 C.3        1 UNL1     0.3143
     33 C         3.141188   2.830848   3.8347 C.2        1 UNL1     0.2504
     34 C         4.608475   5.384236   7.529838 C.3        1 UNL1     -0.0327
     35 O         3.074017   1.005841   5.344224 O.2        1 UNL1     -0.4528
     36 C         -0.141386   -0.89198   4.660451 C.3        1 UNL1     0.0854
     37 C         -1.075289   -0.844816   3.390363 C.3        1 UNL1     0.0236
     38 C         -1.356323   -2.267115   2.704923 C.3        1 UNL1     0.1131
     39 C         -0.144786   -3.218648   2.345714 C.3        1 UNL1     0.0200
     40 C         1.233978   -2.600821   1.638793 C.3        1 UNL1     0.0661
     41 C         1.284887   -1.585501   0.2808 C.3        1 UNL1     0.0091
     42 C         2.461054   -0.249299   -0.162595 C.3        1 UNL1     0.0661
     43 C         4.605797   7.59676   2.978872 C.2        1 UNL1     0.2131
     44 O         4.698944   8.723132   3.432022 O.2        1 UNL1     -0.2851
     45 O         5.364227   7.561186   5.678576 O.3        1 UNL1     -0.5056
     46 O         3.031345   2.221048   2.79454 O.2        1 UNL1     -0.2836
     47 C         5.118404   -0.485906   -0.144642 C.3        1 UNL1     -0.0566
     48 O         2.651231   -0.722895   -1.554951 O.3        1 UNL1     -0.3909
     49 C         -0.106326   -1.054541   0.016034 C.3        1 UNL1     -0.0577
     50 O         2.137117   -2.137712   2.622455 O.3        1 UNL1     -0.3910
     51 O         0.466749   -2.13447   4.932153 O.3        1 UNL1     -0.3753
     52 C         -0.847541   0.453066   2.54859 C.3        1 UNL1     -0.0564
     53 O         -2.503045   -2.251156   1.736884 O.3        1 UNL1     -0.4608
     54 C         -2.707623   -3.159665   0.731554 C.2        1 UNL1     0.3042
     55 O         -3.351281   -4.206594   0.790573 O.2        1 UNL1     -0.2512
     56 C         -2.101047   -2.751283   -0.580698 C.3        1 UNL1     0.0332
     57 C         0.035598   -4.247869   3.55664 C.3        1 UNL1     -0.0567
     58 C         1.310201   2.901945   5.520548 C.3        1 UNL1     0.0210
     59 C         1.373538   -2.129829   6.033778 C.3        1 UNL1     0.0372
     60 C         0.940631   0.129715   4.683669 C.2        1 UNL1     -0.0208
     61 C         2.232229   0.014044   4.995342 C.2        1 UNL1     0.0882
     62 H         3.900158   0.818101   1.038473 H        1 UNL1     0.0365
     63 H         4.96467   2.560325   0.997305 H        1 UNL1     0.0576
     64 H         5.762861   3.308867   -1.883555 H        1 UNL1     0.0615
     65 H         6.106387   4.756952   0.862879 H        1 UNL1     0.0622
     66 H         -0.805789   -0.64639   5.500868 H        1 UNL1     0.0645
     67 H         -2.070646   -0.597388   3.798534 H        1 UNL1     0.0362
     68 H         -1.885687   -2.767568   3.530055 H        1 UNL1     0.0741
     69 H         -0.478065   -3.947072   1.618574 H        1 UNL1     0.0359
     70 H         1.690729   -3.536074   1.262307 H        1 UNL1     0.0600
     71 H         1.385047   -2.34176   -0.522318 H        1 UNL1     0.0348
     72 H         2.973471   -0.867298   0.588951 H        1 UNL1     0.0602
     73 H         0.517701   1.090058   4.522054 H        1 UNL1     0.0628
     74 H         2.754122   -0.935479   5.118915 H        1 UNL1     0.1022
     75 H         6.104629   7.754626   -2.049524 H        1 UNL1     0.0279
     76 H         7.774395   7.761682   -1.643158 H        1 UNL1     0.0279
     77 H         7.060832   6.506679   -2.734531 H        1 UNL1     0.0279
     78 H         4.882536   8.037988   -0.263949 H        1 UNL1     0.1553
     79 H         3.773105   6.580826   -1.020298 H        1 UNL1     0.1484
     80 H         0.48803   4.82567   -0.267169 H        1 UNL1     0.0317
     81 H         1.095243   6.161898   0.700153 H        1 UNL1     0.0317
     82 H         1.904029   7.356434   -1.352321 H        1 UNL1     0.0428
     83 H         0.192038   6.999119   -1.408152 H        1 UNL1     0.0428
     84 H         2.753873   4.388113   -3.58135 H        1 UNL1     0.0428
     85 H         3.515658   5.708215   -2.765178 H        1 UNL1     0.0428
     86 H         3.590279   3.485306   -1.634708 H        1 UNL1     0.0317
     87 H         1.893753   3.370614   -1.529852 H        1 UNL1     0.0317
     88 H         1.952531   6.905946   -4.266233 H        1 UNL1     0.0429
     89 H         0.608344   5.811515   -4.600324 H        1 UNL1     0.0429
     90 H         -0.238592   7.553496   -2.463593 H        1 UNL1     0.0308
     91 H         0.254545   9.774873   -3.12112 H        1 UNL1     0.0233
     92 H         1.796283   8.957876   -3.483133 H        1 UNL1     0.0233
     93 H         0.673305   9.334104   -4.772309 H        1 UNL1     0.0233
     94 H         -2.029329   8.015888   -3.835183 H        1 UNL1     0.0233
     95 H         -1.065068   7.939142   -5.317964 H        1 UNL1     0.0233
     96 H         -1.486173   6.442584   -4.453687 H        1 UNL1     0.0233
     97 H         5.632849   5.471773   7.879444 H        1 UNL1     0.0280
     98 H         4.072439   6.244497   7.951587 H        1 UNL1     0.0280
     99 H         4.178786   4.458887   7.947202 H        1 UNL1     0.0280
     100 H         4.804894   8.317924   5.689407 H        1 UNL1     0.2922
     101 H         5.740565   -0.514295   0.749654 H        1 UNL1     0.0236
     102 H         5.713916   -0.443425   -1.055984 H        1 UNL1     0.0236
     103 H         4.627497   -1.472948   -0.175489 H        1 UNL1     0.0236
     104 H         3.391134   -1.361251   -1.550903 H        1 UNL1     0.2098
     105 H         -0.530035   -1.360751   -0.937128 H        1 UNL1     0.0234
     106 H         -0.820877   -1.228555   0.820436 H        1 UNL1     0.0234
     107 H         0.0   0.0   0.0 H        1 UNL1     0.0234
     108 H         2.764002   -1.533936   2.179467 H        1 UNL1     0.2098
     109 H         0.18853   0.541834   2.193079 H        1 UNL1     0.0234
     110 H         -1.534862   0.542089   1.700411 H        1 UNL1     0.0234
     111 H         -1.037098   1.358117   3.140957 H        1 UNL1     0.0234
     112 H         -1.714495   -1.73003   -0.510234 H        1 UNL1     0.0342
     113 H         -1.323919   -3.441672   -0.905164 H        1 UNL1     0.0342
     114 H         -2.89301   -2.75982   -1.342201 H        1 UNL1     0.0342
     115 H         -0.905778   -4.758351   3.802419 H        1 UNL1     0.0234
     116 H         0.789108   -5.017247   3.376837 H        1 UNL1     0.0234
     117 H         0.270369   -3.759317   4.517962 H        1 UNL1     0.0234
     118 H         0.722748   2.172371   6.105036 H        1 UNL1     0.0309
     119 H         1.292487   3.868926   6.033224 H        1 UNL1     0.0309
     120 H         0.716998   3.031274   4.608687 H        1 UNL1     0.0309
     121 H         1.220563   -1.201108   6.582806 H        1 UNL1     0.0524
     122 H         1.187699   -2.962777   6.732132 H        1 UNL1     0.0524
     123 H         2.398011   -2.19028   5.677553 H        1 UNL1     0.0524
@<TRIPOS>BOND
     1     1     2    1
     2     1    42    1
     3     2     3    2
     4     3     4    1
     5     4     5    2
     6     5     7    1
     7     6    75    1
     8     6    76    1
     9     6    77    1
    10     7     9   am
    11     9    10    1
    12    10    11    2
    13    10    43    1
    14    11    14    1
    15    11    15    1
    16    12    13   ar
    17    12    27   ar
    18    12    43    1
    19    13    14    1
    20    13    30   ar
    21    14    17    2
    22    15    16    1
    23    16    17    1
    24    16    18    1
    25    16    22    1
    26    18    19    1
    27    19    20    1
    28    20    21    1
    29    21    22    1
    30    23    24    1
    31    23    88    1
    32    23    89    1
    33    24    25    1
    34    24    26    1
    35    24    90    1
    36    25    91    1
    37    25    92    1
    38    25    93    1
    39    26    94    1
    40    26    95    1
    41    26    96    1
    42    27    28   ar
    43    28    29   ar
    44    29    30   ar
    45    29    31    1
    46    30    33    1
    47    31    32    1
    48    32    33    1
    49    32    35    1
    50    34    97    1
    51    34    98    1
    52    34    99    1
    53    35    61    1
    54    36    37    1
    55    36    60    1
    56    37    38    1
    57    38    39    1
    58    39    40    1
    59    40    41    1
    60    41    42    1
    61    45   100    1
    62    47   101    1
    63    47   102    1
    64    47   103    1
    65    48   104    1
    66    49   105    1
    67    49   106    1
    68    49   107    1
    69    50   108    1
    70    51    59    1
    71    52   109    1
    72    52   110    1
    73    52   111    1
    74    53    54    1
    75    54    55    2
    76    54    56    1
    77    56   112    1
    78    56   113    1
    79    56   114    1
    80    57   115    1
    81    57   116    1
    82    57   117    1
    83    58   118    1
    84    58   119    1
    85    58   120    1
    86    59   121    1
    87    59   122    1
    88    59   123    1
    89    60    61    2
    90     1    47    1
    91     1    62    1
    92     2    63    1
    93     3    64    1
    94     4    65    1
    95     5     6    1
    96     7     8    2
    97     9    78    1
    98    15    79    1
    99    18    80    1
   100    18    81    1
   101    19    82    1
   102    19    83    1
   103    20    23    1
   104    21    84    1
   105    21    85    1
   106    22    86    1
   107    22    87    1
   108    27    45    1
   109    28    34    1
   110    32    58    1
   111    33    46    2
   112    36    51    1
   113    36    66    1
   114    37    52    1
   115    37    67    1
   116    38    53    1
   117    38    68    1
   118    42    48    1
   119    42    72    1
   120    43    44    2
   121    60    73    1
   122    61    74    1
   123    39    69    1
   124    39    57    1
   125    40    70    1
   126    40    50    1
   127    41    71    1
   128    41    49    1
