@<TRIPOS>MOLECULE
*****
 123 128 0 0 0
SMALL
GASTEIGER

@<TRIPOS>ATOM
     1 C         3.820197   3.577311   1.618854 C.3        1 UNL1     0.0009
     2 C         5.269831   3.873089   2.736042 C.2        1 UNL1     -0.0787
     3 C         5.830837   4.449293   3.939915 C.2        1 UNL1     -0.0649
     4 C         7.396348   4.255278   4.554644 C.2        1 UNL1     -0.0542
     5 C         8.210274   4.352451   5.710135 C.2        1 UNL1     0.0115
     6 C         8.253886   4.861184   7.177313 C.3        1 UNL1     -0.0348
     7 C         9.624843   3.593774   5.730001 C.2        1 UNL1     0.2441
     8 O         10.690903   4.169015   5.559298 O.2        1 UNL1     -0.2702
     9 N         9.579053   2.274856   6.214263 N.am        1 UNL1     -0.2772
     10 C         9.306886   1.396621   5.190569 C.2        1 UNL1     0.1049
     11 C         8.033832   1.253414   4.869557 C.2        1 UNL1     0.0801
     12 C         10.001696   0.781129   2.867695 C.ar        1 UNL1     0.0753
     13 C         8.614653   0.84412   2.520203 C.ar        1 UNL1     0.0305
     14 C         7.574435   0.953419   3.540522 C.2        1 UNL1     0.0924
     15 N         6.928784   1.665549   5.514181 N.pl3        1 UNL1     -0.3170
     16 C         5.789905   1.106463   4.835482 C.3        1 UNL1     0.1275
     17 N         6.251152   0.924947   3.409991 N.2        1 UNL1     -0.2557
     18 C         5.575434   -0.297341   5.39319 C.3        1 UNL1     0.0016
     19 C         5.422437   -0.202735   6.902902 C.3        1 UNL1     0.0026
     20 N         4.288631   0.659959   7.205016 N.3        1 UNL1     -0.3018
     21 C         4.375013   2.015062   6.656744 C.3        1 UNL1     0.0026
     22 C         4.523564   1.896299   5.138942 C.3        1 UNL1     0.0016
     23 C         3.872582   0.579792   8.59106 C.3        1 UNL1     0.0012
     24 C         3.220107   -0.781355   8.8797 C.3        1 UNL1     -0.0339
     25 C         2.092747   -0.655777   9.917653 C.3        1 UNL1     -0.0615
     26 C         2.723011   -1.405137   7.587194 C.3        1 UNL1     -0.0615
     27 C         10.978506   0.555772   1.90065 C.ar        1 UNL1     0.1347
     28 C         10.687857   0.339869   0.565375 C.ar        1 UNL1     0.0342
     29 C         9.31997   0.455018   0.238587 C.ar        1 UNL1     0.1435
     30 C         8.333917   0.716237   1.190786 C.ar        1 UNL1     0.0774
     31 O         8.864211   0.163913   -0.999374 O.3        1 UNL1     -0.4436
     32 C         7.458115   -0.065892   -0.823426 C.3        1 UNL1     0.3143
     33 C         7.091889   0.673389   0.447619 C.2        1 UNL1     0.2504
     34 C         11.650996   -0.154039   -0.477946 C.3        1 UNL1     -0.0327
     35 O         6.780651   0.594094   -1.899862 O.2        1 UNL1     -0.4528
     36 C         3.631773   -1.425925   -2.541877 C.3        1 UNL1     0.0854
     37 C         2.463435   -1.792752   -1.547922 C.3        1 UNL1     0.0236
     38 C         0.997982   -1.367254   -2.041016 C.3        1 UNL1     0.1131
     39 C         0.733329   0.11365   -2.53005 C.3        1 UNL1     0.0200
     40 C         1.357114   1.40761   -1.682114 C.3        1 UNL1     0.0661
     41 C         1.226108   1.655348   -0.00907 C.3        1 UNL1     0.0091
     42 C         2.378976   2.461443   1.168431 C.3        1 UNL1     0.0661
     43 C         10.358461   0.874545   4.305141 C.2        1 UNL1     0.2131
     44 O         11.404595   0.456739   4.767504 O.2        1 UNL1     -0.2851
     45 O         12.308698   0.554503   2.31541 O.3        1 UNL1     -0.5056
     46 O         6.021393   1.141273   0.765388 O.2        1 UNL1     -0.2836
     47 C         3.482158   4.865698   0.821501 C.3        1 UNL1     -0.0566
     48 O         1.326494   3.283757   1.81279 O.3        1 UNL1     -0.3909
     49 C         0.7597   0.371032   0.639383 C.3        1 UNL1     -0.0577
     50 O         2.670522   1.702783   -2.112876 O.3        1 UNL1     -0.3910
     51 O         3.273447   -0.624189   -3.644716 O.3        1 UNL1     -0.3753
     52 C         2.908032   -1.663531   -0.054407 C.3        1 UNL1     -0.0564
     53 O         -0.109398   -2.024106   -1.269925 O.3        1 UNL1     -0.4608
     54 C         -1.294388   -1.431695   -0.91953 C.2        1 UNL1     0.3042
     55 O         -1.611114   -0.990595   0.184532 O.2        1 UNL1     -0.2512
     56 C         -2.253763   -1.281612   -2.065736 C.3        1 UNL1     0.0332
     57 C         0.875637   0.128184   -4.12307 C.3        1 UNL1     -0.0567
     58 C         7.289715   -1.584319   -0.583533 C.3        1 UNL1     0.0210
     59 C         3.255299   -1.303873   -4.899134 C.3        1 UNL1     0.0372
     60 C         4.816011   -0.782622   -1.910288 C.2        1 UNL1     -0.0208
     61 C         5.533308   0.274086   -2.294471 C.2        1 UNL1     0.0882
     62 H         4.466091   2.97013   0.973205 H        1 UNL1     0.0365
     63 H         6.071105   3.409301   2.156965 H        1 UNL1     0.0576
     64 H         5.204832   4.957435   4.676812 H        1 UNL1     0.0615
     65 H         7.951305   3.816959   3.720749 H        1 UNL1     0.0622
     66 H         3.983213   -2.394596   -2.924255 H        1 UNL1     0.0645
     67 H         2.401882   -2.893631   -1.601167 H        1 UNL1     0.0362
     68 H         0.919459   -1.991249   -2.944336 H        1 UNL1     0.0741
     69 H         -0.331339   0.303881   -2.503574 H        1 UNL1     0.0359
     70 H         0.738773   2.225141   -2.099677 H        1 UNL1     0.0600
     71 H         0.301077   2.263753   0.024385 H        1 UNL1     0.0348
     72 H         2.668545   2.817142   0.168959 H        1 UNL1     0.0602
     73 H         5.14405   -1.378697   -1.095222 H        1 UNL1     0.0628
     74 H         5.235895   0.968229   -3.081205 H        1 UNL1     0.1022
     75 H         7.257008   5.260544   7.483547 H        1 UNL1     0.0279
     76 H         8.45296   4.115424   7.943655 H        1 UNL1     0.0279
     77 H         8.890516   5.749551   7.300637 H        1 UNL1     0.0279
     78 H         8.831378   2.187831   6.899454 H        1 UNL1     0.1553
     79 H         6.912398   1.920031   6.484698 H        1 UNL1     0.1484
     80 H         4.684449   -0.735004   4.926967 H        1 UNL1     0.0317
     81 H         6.415895   -0.95203   5.13891 H        1 UNL1     0.0317
     82 H         6.340388   0.167441   7.382743 H        1 UNL1     0.0428
     83 H         5.272357   -1.214763   7.280163 H        1 UNL1     0.0428
     84 H         3.476986   2.616273   6.829669 H        1 UNL1     0.0428
     85 H         5.17987   2.596095   7.127832 H        1 UNL1     0.0428
     86 H         4.449773   2.899307   4.761427 H        1 UNL1     0.0317
     87 H         3.642722   1.399718   4.713947 H        1 UNL1     0.0317
     88 H         4.765403   0.680198   9.221999 H        1 UNL1     0.0429
     89 H         3.198764   1.405534   8.853535 H        1 UNL1     0.0429
     90 H         3.979997   -1.468196   9.27089 H        1 UNL1     0.0308
     91 H         1.435613   0.189115   9.690861 H        1 UNL1     0.0233
     92 H         1.498805   -1.571965   9.955623 H        1 UNL1     0.0233
     93 H         2.475707   -0.497318   10.933068 H        1 UNL1     0.0233
     94 H         1.943257   -2.144405   7.800038 H        1 UNL1     0.0233
     95 H         2.290315   -0.63478   6.942768 H        1 UNL1     0.0233
     96 H         3.533102   -1.903085   7.047038 H        1 UNL1     0.0233
     97 H         11.313753   -1.07746   -0.939239 H        1 UNL1     0.0280
     98 H         11.775735   0.56398   -1.299009 H        1 UNL1     0.0280
     99 H         12.634259   -0.338081   -0.014894 H        1 UNL1     0.0280
     100 H         12.553904   1.291654   2.846546 H        1 UNL1     0.2922
     101 H         2.89501   4.609104   -0.060017 H        1 UNL1     0.0236
     102 H         4.361863   5.456803   0.569118 H        1 UNL1     0.0236
     103 H         2.838193   5.551724   1.396714 H        1 UNL1     0.0236
     104 H         1.321745   4.155549   1.371286 H        1 UNL1     0.2098
     105 H         1.527217   -0.394287   0.723142 H        1 UNL1     0.0234
     106 H         0.250744   0.501732   1.594269 H        1 UNL1     0.0234
     107 H         -0.0   0.0   0.0 H        1 UNL1     0.0234
     108 H         3.066931   2.29827   -1.448029 H        1 UNL1     0.2098
     109 H         3.741522   -2.336352   0.191193 H        1 UNL1     0.0234
     110 H         3.168688   -0.638363   0.229903 H        1 UNL1     0.0234
     111 H         2.096068   -1.932502   0.634299 H        1 UNL1     0.0234
     112 H         -3.261224   -1.566424   -1.747539 H        1 UNL1     0.0342
     113 H         -2.244584   -0.27383   -2.478211 H        1 UNL1     0.0342
     114 H         -1.945238   -1.970775   -2.863878 H        1 UNL1     0.0342
     115 H         0.141016   0.796783   -4.59264 H        1 UNL1     0.0234
     116 H         1.864389   0.425873   -4.477754 H        1 UNL1     0.0234
     117 H         0.619903   -0.835407   -4.596391 H        1 UNL1     0.0234
     118 H         6.79684   -2.086342   -1.434446 H        1 UNL1     0.0309
     119 H         8.234672   -2.092377   -0.366428 H        1 UNL1     0.0309
     120 H         6.62582   -1.805645   0.259299 H        1 UNL1     0.0309
     121 H         3.428885   -0.562323   -5.678448 H        1 UNL1     0.0524
     122 H         4.054022   -2.060216   -4.976751 H        1 UNL1     0.0524
     123 H         2.294889   -1.788541   -5.050139 H        1 UNL1     0.0524
@<TRIPOS>BOND
     1     1     2    1
     2     1    42    1
     3     2     3    2
     4     3     4    1
     5     4     5    2
     6     5     7    1
     7     6    75    1
     8     6    76    1
     9     6    77    1
    10     7     9   am
    11     9    10    1
    12    10    11    2
    13    10    43    1
    14    11    14    1
    15    11    15    1
    16    12    13   ar
    17    12    27   ar
    18    12    43    1
    19    13    14    1
    20    13    30   ar
    21    14    17    2
    22    15    16    1
    23    16    17    1
    24    16    18    1
    25    16    22    1
    26    18    19    1
    27    19    20    1
    28    20    21    1
    29    21    22    1
    30    23    24    1
    31    23    88    1
    32    23    89    1
    33    24    25    1
    34    24    26    1
    35    24    90    1
    36    25    91    1
    37    25    92    1
    38    25    93    1
    39    26    94    1
    40    26    95    1
    41    26    96    1
    42    27    28   ar
    43    28    29   ar
    44    29    30   ar
    45    29    31    1
    46    30    33    1
    47    31    32    1
    48    32    33    1
    49    32    35    1
    50    34    97    1
    51    34    98    1
    52    34    99    1
    53    35    61    1
    54    36    37    1
    55    36    60    1
    56    37    38    1
    57    38    39    1
    58    39    40    1
    59    40    41    1
    60    41    42    1
    61    45   100    1
    62    47   101    1
    63    47   102    1
    64    47   103    1
    65    48   104    1
    66    49   105    1
    67    49   106    1
    68    49   107    1
    69    50   108    1
    70    51    59    1
    71    52   109    1
    72    52   110    1
    73    52   111    1
    74    53    54    1
    75    54    55    2
    76    54    56    1
    77    56   112    1
    78    56   113    1
    79    56   114    1
    80    57   115    1
    81    57   116    1
    82    57   117    1
    83    58   118    1
    84    58   119    1
    85    58   120    1
    86    59   121    1
    87    59   122    1
    88    59   123    1
    89    60    61    2
    90     1    47    1
    91     1    62    1
    92     2    63    1
    93     3    64    1
    94     4    65    1
    95     5     6    1
    96     7     8    2
    97     9    78    1
    98    15    79    1
    99    18    80    1
   100    18    81    1
   101    19    82    1
   102    19    83    1
   103    20    23    1
   104    21    84    1
   105    21    85    1
   106    22    86    1
   107    22    87    1
   108    27    45    1
   109    28    34    1
   110    32    58    1
   111    33    46    2
   112    36    51    1
   113    36    66    1
   114    37    52    1
   115    37    67    1
   116    38    53    1
   117    38    68    1
   118    42    48    1
   119    42    72    1
   120    43    44    2
   121    60    73    1
   122    61    74    1
   123    39    69    1
   124    39    57    1
   125    40    70    1
   126    40    50    1
   127    41    71    1
   128    41    49    1
