@<TRIPOS>MOLECULE
*****
 123 128 0 0 0
SMALL
GASTEIGER

@<TRIPOS>ATOM
     1 C         2.038864   -1.788544   -4.75851 C.3        1 UNL1     0.0009
     2 C         2.166512   -1.49143   -6.584014 C.2        1 UNL1     -0.0787
     3 C         1.748947   -1.790809   -7.93755 C.2        1 UNL1     -0.0649
     4 C         2.206563   -1.004892   -9.365583 C.2        1 UNL1     -0.0542
     5 C         1.865704   -0.765851   -10.719744 C.2        1 UNL1     0.0115
     6 C         0.915541   -1.195795   -11.871118 C.3        1 UNL1     -0.0348
     7 C         2.540001   0.474896   -11.483197 C.2        1 UNL1     0.2441
     8 O         3.463863   0.346687   -12.274757 O.2        1 UNL1     -0.2702
     9 N         1.830833   1.684457   -11.382225 N.am        1 UNL1     -0.2772
     10 C         2.218605   2.37602   -10.257638 C.2        1 UNL1     0.1049
     11 C         1.639843   2.018031   -9.125781 C.2        1 UNL1     0.0801
     12 C         4.239645   3.172253   -9.017176 C.ar        1 UNL1     0.0753
     13 C         3.660166   2.579786   -7.850216 C.ar        1 UNL1     0.0305
     14 C         2.280452   2.09879   -7.841073 C.2        1 UNL1     0.0924
     15 N         0.574765   1.226321   -8.912873 N.pl3        1 UNL1     -0.3170
     16 C         0.246559   1.298123   -7.513809 C.3        1 UNL1     0.1275
     17 N         1.555612   1.618675   -6.834582 N.2        1 UNL1     -0.2557
     18 C         -0.642117   2.52305   -7.320131 C.3        1 UNL1     0.0016
     19 C         -1.845211   2.401676   -8.241772 C.3        1 UNL1     0.0026
     20 N         -2.562673   1.176981   -7.915581 N.3        1 UNL1     -0.3018
     21 C         -1.771779   -0.051592   -8.012857 C.3        1 UNL1     0.0026
     22 C         -0.571187   0.090288   -7.075658 C.3        1 UNL1     0.0016
     23 C         -3.877382   1.114913   -8.522484 C.3        1 UNL1     0.0012
     24 C         -4.82413   2.129132   -7.861587 C.3        1 UNL1     -0.0339
     25 C         -4.979797   3.395262   -8.719922 C.3        1 UNL1     -0.0615
     26 C         -6.166655   1.478892   -7.575935 C.3        1 UNL1     -0.0615
     27 C         5.512356   3.737227   -8.983579 C.ar        1 UNL1     0.1347
     28 C         6.28195   3.804463   -7.835862 C.ar        1 UNL1     0.0342
     29 C         5.711337   3.171418   -6.711221 C.ar        1 UNL1     0.1435
     30 C         4.452699   2.569531   -6.739226 C.ar        1 UNL1     0.0774
     31 O         6.288069   3.246816   -5.491917 O.3        1 UNL1     -0.4436
     32 C         5.233921   2.9262   -4.571673 C.3        1 UNL1     0.3143
     33 C         4.233678   2.123777   -5.379042 C.2        1 UNL1     0.2504
     34 C         7.538662   4.611239   -7.662981 C.3        1 UNL1     -0.0327
     35 O         5.782193   2.040537   -3.587675 O.2        1 UNL1     -0.4528
     36 C         3.835108   2.697353   -0.396196 C.3        1 UNL1     0.0854
     37 C         2.281383   2.607226   -0.140585 C.3        1 UNL1     0.0236
     38 C         1.850091   1.647428   1.069588 C.3        1 UNL1     0.1131
     39 C         2.410497   0.169739   1.137771 C.3        1 UNL1     0.0200
     40 C         2.47146   -0.774948   -0.235651 C.3        1 UNL1     0.0661
     41 C         1.19642   -1.026856   -1.3258 C.3        1 UNL1     0.0091
     42 C         1.218932   -1.3136   -3.137615 C.3        1 UNL1     0.0661
     43 C         3.404701   3.245089   -10.241849 C.2        1 UNL1     0.2131
     44 O         3.602369   4.037472   -11.145062 O.2        1 UNL1     -0.2851
     45 O         6.021247   4.252058   -10.174132 O.3        1 UNL1     -0.5056
     46 O         3.448331   1.288421   -4.990116 O.2        1 UNL1     -0.2836
     47 C         2.73871   -3.121223   -4.378819 C.3        1 UNL1     -0.0566
     48 O         0.285347   -2.464445   -3.082004 O.3        1 UNL1     -0.3909
     49 C         0.113214   -0.006933   -1.053923 C.3        1 UNL1     -0.0577
     50 O         3.675217   -0.554198   -0.942732 O.3        1 UNL1     -0.3910
     51 O         4.634096   1.801861   0.343496 O.3        1 UNL1     -0.3753
     52 C         1.467196   2.681346   -1.473459 C.3        1 UNL1     -0.0564
     53 O         0.43107   1.845029   1.516423 O.3        1 UNL1     -0.4608
     54 C         -0.319215   0.930751   2.208593 C.2        1 UNL1     0.3042
     55 O         -1.203914   0.200519   1.763727 O.2        1 UNL1     -0.2512
     56 C         0.063637   0.811173   3.656295 C.3        1 UNL1     0.0332
     57 C         3.695754   0.184805   2.089644 C.3        1 UNL1     -0.0567
     58 C         4.584227   4.269508   -4.165531 C.3        1 UNL1     0.0210
     59 C         5.96969   2.244931   0.579595 C.3        1 UNL1     0.0372
     60 C         4.246892   2.564229   -1.82023 C.2        1 UNL1     -0.0208
     61 C         5.231822   1.85459   -2.372561 C.2        1 UNL1     0.0882
     62 H         2.774616   -0.991543   -4.596742 H        1 UNL1     0.0365
     63 H         2.982729   -0.766687   -6.61574 H        1 UNL1     0.0576
     64 H         0.933188   -2.487206   -8.144128 H        1 UNL1     0.0615
     65 H         3.068058   -0.401683   -9.066506 H        1 UNL1     0.0622
     66 H         4.104848   3.720542   -0.098921 H        1 UNL1     0.0645
     67 H         2.017941   3.600544   0.262499 H        1 UNL1     0.0362
     68 H         2.328313   2.179722   1.905943 H        1 UNL1     0.0741
     69 H         1.780138   -0.411444   1.79753 H        1 UNL1     0.0359
     70 H         2.600319   -1.773067   0.225017 H        1 UNL1     0.0600
     71 H         0.747732   -1.941261   -0.890484 H        1 UNL1     0.0348
     72 H         2.232342   -1.548189   -2.780847 H        1 UNL1     0.0602
     73 H         3.694509   3.25342   -2.409413 H        1 UNL1     0.0628
     74 H         5.805492   1.086877   -1.852218 H        1 UNL1     0.1022
     75 H         0.167704   -1.939937   -11.505021 H        1 UNL1     0.0279
     76 H         0.284083   -0.418175   -12.294955 H        1 UNL1     0.0279
     77 H         1.429761   -1.772366   -12.653961 H        1 UNL1     0.0279
     78 H         0.835334   1.491018   -11.294818 H        1 UNL1     0.1553
     79 H         -0.10142   1.000514   -9.619073 H        1 UNL1     0.1484
     80 H         -0.947479   2.580519   -6.268362 H        1 UNL1     0.0317
     81 H         -0.09121   3.444441   -7.537364 H        1 UNL1     0.0317
     82 H         -1.5497   2.417087   -9.301182 H        1 UNL1     0.0428
     83 H         -2.464487   3.286076   -8.088859 H        1 UNL1     0.0428
     84 H         -2.310091   -0.946802   -7.686316 H        1 UNL1     0.0428
     85 H         -1.488598   -0.274336   -9.05089 H        1 UNL1     0.0428
     86 H         -0.091912   -0.8711   -7.071497 H        1 UNL1     0.0317
     87 H         -0.915401   0.206751   -6.040743 H        1 UNL1     0.0317
     88 H         -3.775655   1.37256   -9.584823 H        1 UNL1     0.0429
     89 H         -4.290457   0.099046   -8.476051 H        1 UNL1     0.0429
     90 H         -4.417001   2.417128   -6.885105 H        1 UNL1     0.0308
     91 H         -5.343856   3.153501   -9.722975 H        1 UNL1     0.0233
     92 H         -5.669221   4.099386   -8.248209 H        1 UNL1     0.0233
     93 H         -4.03242   3.93314   -8.846411 H        1 UNL1     0.0233
     94 H         -6.912108   2.243267   -7.331261 H        1 UNL1     0.0233
     95 H         -6.515735   0.938422   -8.460241 H        1 UNL1     0.0233
     96 H         -6.100998   0.77944   -6.737827 H        1 UNL1     0.0233
     97 H         7.894247   4.596755   -6.637028 H        1 UNL1     0.0280
     98 H         8.36559   4.225025   -8.273133 H        1 UNL1     0.0280
     99 H         7.346773   5.658786   -7.947445 H        1 UNL1     0.0280
     100 H         6.376566   5.120717   -10.104835 H        1 UNL1     0.2922
     101 H         2.794554   -3.211159   -3.294177 H        1 UNL1     0.0236
     102 H         3.713461   -3.242912   -4.850025 H        1 UNL1     0.0236
     103 H         2.158055   -4.000941   -4.703055 H        1 UNL1     0.0236
     104 H         0.819699   -3.271481   -2.94735 H        1 UNL1     0.2098
     105 H         0.359087   1.004112   -1.368796 H        1 UNL1     0.0234
     106 H         -0.876035   -0.285564   -1.416799 H        1 UNL1     0.0234
     107 H         -0.0   0.0   0.0 H        1 UNL1     0.0234
     108 H         3.63758   0.352504   -1.303622 H        1 UNL1     0.2098
     109 H         1.737994   1.876993   -2.171598 H        1 UNL1     0.0234
     110 H         0.383208   2.680579   -1.316256 H        1 UNL1     0.0234
     111 H         1.657377   3.619139   -2.012274 H        1 UNL1     0.0234
     112 H         -0.556741   0.053081   4.143915 H        1 UNL1     0.0342
     113 H         1.122391   0.590209   3.783018 H        1 UNL1     0.0342
     114 H         -0.136064   1.774872   4.144728 H        1 UNL1     0.0342
     115 H         3.477494   0.644733   3.063305 H        1 UNL1     0.0234
     116 H         4.118279   -0.803632   2.280733 H        1 UNL1     0.0234
     117 H         4.507089   0.836923   1.723011 H        1 UNL1     0.0234
     118 H         5.14131   4.771173   -3.354978 H        1 UNL1     0.0309
     119 H         4.470956   4.963068   -5.004785 H        1 UNL1     0.0309
     120 H         3.582459   4.140661   -3.741306 H        1 UNL1     0.0309
     121 H         6.590525   1.360477   0.71982 H        1 UNL1     0.0524
     122 H         6.381182   2.807255   -0.2751 H        1 UNL1     0.0524
     123 H         6.006335   2.872872   1.465282 H        1 UNL1     0.0524
@<TRIPOS>BOND
     1     1     2    1
     2     1    42    1
     3     2     3    2
     4     3     4    1
     5     4     5    2
     6     5     7    1
     7     6    75    1
     8     6    76    1
     9     6    77    1
    10     7     9   am
    11     9    10    1
    12    10    11    2
    13    10    43    1
    14    11    14    1
    15    11    15    1
    16    12    13   ar
    17    12    27   ar
    18    12    43    1
    19    13    14    1
    20    13    30   ar
    21    14    17    2
    22    15    16    1
    23    16    17    1
    24    16    18    1
    25    16    22    1
    26    18    19    1
    27    19    20    1
    28    20    21    1
    29    21    22    1
    30    23    24    1
    31    23    88    1
    32    23    89    1
    33    24    25    1
    34    24    26    1
    35    24    90    1
    36    25    91    1
    37    25    92    1
    38    25    93    1
    39    26    94    1
    40    26    95    1
    41    26    96    1
    42    27    28   ar
    43    28    29   ar
    44    29    30   ar
    45    29    31    1
    46    30    33    1
    47    31    32    1
    48    32    33    1
    49    32    35    1
    50    34    97    1
    51    34    98    1
    52    34    99    1
    53    35    61    1
    54    36    37    1
    55    36    60    1
    56    37    38    1
    57    38    39    1
    58    39    40    1
    59    40    41    1
    60    41    42    1
    61    45   100    1
    62    47   101    1
    63    47   102    1
    64    47   103    1
    65    48   104    1
    66    49   105    1
    67    49   106    1
    68    49   107    1
    69    50   108    1
    70    51    59    1
    71    52   109    1
    72    52   110    1
    73    52   111    1
    74    53    54    1
    75    54    55    2
    76    54    56    1
    77    56   112    1
    78    56   113    1
    79    56   114    1
    80    57   115    1
    81    57   116    1
    82    57   117    1
    83    58   118    1
    84    58   119    1
    85    58   120    1
    86    59   121    1
    87    59   122    1
    88    59   123    1
    89    60    61    2
    90     1    47    1
    91     1    62    1
    92     2    63    1
    93     3    64    1
    94     4    65    1
    95     5     6    1
    96     7     8    2
    97     9    78    1
    98    15    79    1
    99    18    80    1
   100    18    81    1
   101    19    82    1
   102    19    83    1
   103    20    23    1
   104    21    84    1
   105    21    85    1
   106    22    86    1
   107    22    87    1
   108    27    45    1
   109    28    34    1
   110    32    58    1
   111    33    46    2
   112    36    51    1
   113    36    66    1
   114    37    52    1
   115    37    67    1
   116    38    53    1
   117    38    68    1
   118    42    48    1
   119    42    72    1
   120    43    44    2
   121    60    73    1
   122    61    74    1
   123    39    69    1
   124    39    57    1
   125    40    70    1
   126    40    50    1
   127    41    71    1
   128    41    49    1
