@<TRIPOS>MOLECULE
*****
 123 128 0 0 0
SMALL
GASTEIGER

@<TRIPOS>ATOM
     1 C         -3.19427   -3.927188   -0.547995 C.3        1 UNL1     0.0009
     2 C         -4.989838   -4.353338   -0.725108 C.2        1 UNL1     -0.0787
     3 C         -6.28531   -4.60645   -0.130354 C.2        1 UNL1     -0.0649
     4 C         -7.759845   -4.86757   -0.920242 C.2        1 UNL1     -0.0542
     5 C         -9.169759   -4.849471   -0.782793 C.2        1 UNL1     0.0115
     6 C         -10.33096   -4.730614   0.242296 C.3        1 UNL1     -0.0348
     7 C         -10.078748   -4.807285   -2.105271 C.2        1 UNL1     0.2441
     8 O         -10.65009   -5.792564   -2.551722 O.2        1 UNL1     -0.2702
     9 N         -10.386752   -3.515848   -2.567304 N.am        1 UNL1     -0.2772
     10 C         -9.407795   -3.065854   -3.423151 C.2        1 UNL1     0.1049
     11 C         -8.337968   -2.537225   -2.857251 C.2        1 UNL1     0.0801
     12 C         -8.066706   -3.73018   -5.427517 C.ar        1 UNL1     0.0753
     13 C         -6.908183   -3.334109   -4.686193 C.ar        1 UNL1     0.0305
     14 C         -7.019208   -2.602056   -3.426501 C.2        1 UNL1     0.0924
     15 N         -8.127653   -2.170599   -1.581367 N.pl3        1 UNL1     -0.3170
     16 C         -6.860981   -1.490635   -1.522664 C.3        1 UNL1     0.1275
     17 N         -6.06528   -2.074806   -2.664297 N.2        1 UNL1     -0.2557
     18 C         -7.114198   -0.030733   -1.886353 C.3        1 UNL1     0.0016
     19 C         -8.170919   0.528245   -0.946952 C.3        1 UNL1     0.0026
     20 N         -7.691497   0.405045   0.422721 N.3        1 UNL1     -0.3018
     21 C         -7.361674   -0.957526   0.845789 C.3        1 UNL1     0.0026
     22 C         -6.295314   -1.497779   -0.108621 C.3        1 UNL1     0.0016
     23 C         -8.479807   1.171304   1.367208 C.3        1 UNL1     0.0012
     24 C         -8.641879   0.398357   2.685556 C.3        1 UNL1     -0.0339
     25 C         -10.104586   -0.013581   2.919765 C.3        1 UNL1     -0.0615
     26 C         -7.713181   -0.803317   2.702258 C.3        1 UNL1     -0.0615
     27 C         -7.952627   -4.319717   -6.684318 C.ar        1 UNL1     0.1347
     28 C         -6.740007   -4.526876   -7.317318 C.ar        1 UNL1     0.0342
     29 C         -5.610932   -4.174   -6.548011 C.ar        1 UNL1     0.1435
     30 C         -5.708589   -3.615829   -5.272813 C.ar        1 UNL1     0.0774
     31 O         -4.364297   -4.213118   -7.067026 O.3        1 UNL1     -0.4436
     32 C         -3.586101   -3.368749   -6.205443 C.3        1 UNL1     0.3143
     33 C         -4.338801   -3.343244   -4.890527 C.2        1 UNL1     0.2504
     34 C         -6.552268   -4.918024   -8.756713 C.3        1 UNL1     -0.0327
     35 O         -2.343147   -4.038762   -5.961716 O.2        1 UNL1     -0.4528
     36 C         0.227791   -1.298767   -5.422464 C.3        1 UNL1     0.0854
     37 C         0.231213   -0.130217   -4.363218 C.3        1 UNL1     0.0236
     38 C         1.542632   -0.055798   -3.443226 C.3        1 UNL1     0.1131
     39 C         2.050549   -1.352924   -2.693723 C.3        1 UNL1     0.0200
     40 C         0.968845   -2.359743   -1.919986 C.3        1 UNL1     0.0661
     41 C         -0.230564   -1.874336   -0.822985 C.3        1 UNL1     0.0091
     42 C         -1.893288   -2.574656   -0.490868 C.3        1 UNL1     0.0661
     43 C         -9.397005   -3.410798   -4.852574 C.2        1 UNL1     0.2131
     44 O         -10.414675   -3.327901   -5.51606 O.2        1 UNL1     -0.2851
     45 O         -9.12737   -4.71742   -7.319337 O.3        1 UNL1     -0.5056
     46 O         -3.902493   -3.161147   -3.775928 O.2        1 UNL1     -0.2836
     47 C         -2.398812   -5.151787   -0.021131 C.3        1 UNL1     -0.0566
     48 O         -1.726731   -2.56862   0.982678 O.3        1 UNL1     -0.3909
     49 C         -0.393518   -0.373256   -0.910738 C.3        1 UNL1     -0.0577
     50 O         0.443453   -3.31603   -2.81843 O.3        1 UNL1     -0.3910
     51 O         1.281588   -2.229225   -5.316676 O.3        1 UNL1     -0.3753
     52 C         -1.199441   0.144175   -3.794984 C.3        1 UNL1     -0.0564
     53 O         1.684063   1.242015   -2.702953 O.3        1 UNL1     -0.4608
     54 C         1.297772   2.470634   -3.171145 C.2        1 UNL1     0.3042
     55 O         1.779352   3.095218   -4.115504 O.2        1 UNL1     -0.2512
     56 C         0.113975   3.045343   -2.446544 C.3        1 UNL1     0.0332
     57 C         3.175118   -2.029127   -3.608201 C.3        1 UNL1     -0.0567
     58 C         -3.623485   -1.954157   -6.82919 C.3        1 UNL1     0.0210
     59 C         1.301725   -3.23016   -6.333332 C.3        1 UNL1     0.0372
     60 C         -1.03422   -2.085081   -5.48726 C.2        1 UNL1     -0.0208
     61 C         -1.229357   -3.402911   -5.550435 C.2        1 UNL1     0.0882
     62 H         -3.102862   -3.94125   -1.64077 H        1 UNL1     0.0365
     63 H         -5.053012   -4.525437   -1.801612 H        1 UNL1     0.0576
     64 H         -6.456812   -4.484332   0.941458 H        1 UNL1     0.0615
     65 H         -7.470142   -5.054425   -1.957855 H        1 UNL1     0.0622
     66 H         0.316906   -0.791445   -6.393407 H        1 UNL1     0.0645
     67 H         0.338569   0.783834   -4.972762 H        1 UNL1     0.0362
     68 H         2.298514   0.149104   -4.216648 H        1 UNL1     0.0741
     69 H         2.712388   -1.054699   -1.891577 H        1 UNL1     0.0359
     70 H         1.666568   -2.934389   -1.281217 H        1 UNL1     0.0600
     71 H         0.325625   -1.976955   0.129422 H        1 UNL1     0.0348
     72 H         -1.325408   -3.368677   -0.997185 H        1 UNL1     0.0602
     73 H         -1.853728   -1.420923   -5.607876 H        1 UNL1     0.0628
     74 H         -0.453647   -4.150052   -5.379287 H        1 UNL1     0.1022
     75 H         -11.098422   -5.520743   0.058631 H        1 UNL1     0.0279
     76 H         -10.074288   -4.891663   1.286926 H        1 UNL1     0.0279
     77 H         -10.925549   -3.815253   0.107098 H        1 UNL1     0.0279
     78 H         -10.425694   -2.871308   -1.780456 H        1 UNL1     0.1553
     79 H         -8.864582   -2.00536   -0.920637 H        1 UNL1     0.1484
     80 H         -6.172683   0.526028   -1.806778 H        1 UNL1     0.0317
     81 H         -7.446043   0.06162   -2.926064 H        1 UNL1     0.0317
     82 H         -9.138576   0.021073   -1.074742 H        1 UNL1     0.0428
     83 H         -8.337452   1.569404   -1.224992 H        1 UNL1     0.0428
     84 H         -6.92925   -1.012556   1.849677 H        1 UNL1     0.0428
     85 H         -8.254866   -1.594746   0.904734 H        1 UNL1     0.0428
     86 H         -5.983966   -2.437984   0.307392 H        1 UNL1     0.0317
     87 H         -5.390384   -0.880986   -0.047251 H        1 UNL1     0.0317
     88 H         -7.947614   2.108817   1.574897 H        1 UNL1     0.0429
     89 H         -9.455847   1.442382   0.944554 H        1 UNL1     0.0429
     90 H         -8.321247   1.036286   3.517694 H        1 UNL1     0.0308
     91 H         -10.169126   -0.984456   3.420104 H        1 UNL1     0.0233
     92 H         -10.625201   0.735208   3.521333 H        1 UNL1     0.0233
     93 H         -10.669142   -0.100061   1.983478 H        1 UNL1     0.0233
     94 H         -8.091105   -1.563144   3.394842 H        1 UNL1     0.0233
     95 H         -7.663083   -1.250694   1.705611 H        1 UNL1     0.0233
     96 H         -6.703306   -0.522866   3.014461 H        1 UNL1     0.0233
     97 H         -6.424982   -4.053003   -9.400737 H        1 UNL1     0.0280
     98 H         -5.657412   -5.536705   -8.904097 H        1 UNL1     0.0280
     99 H         -7.43408   -5.480811   -9.104237 H        1 UNL1     0.0280
     100 H         -9.155574   -5.627791   -7.556087 H        1 UNL1     0.2922
     101 H         -1.366003   -4.863371   0.173236 H        1 UNL1     0.0236
     102 H         -2.464676   -6.019814   -0.676246 H        1 UNL1     0.0236
     103 H         -2.778694   -5.504802   0.952143 H        1 UNL1     0.0236
     104 H         -0.978153   -3.158986   1.197317 H        1 UNL1     0.2098
     105 H         0.155868   0.091247   -1.725737 H        1 UNL1     0.0234
     106 H         -1.426727   -0.0263   -0.905572 H        1 UNL1     0.0234
     107 H         0.0   0.0   0.0 H        1 UNL1     0.0234
     108 H         0.141318   -2.833371   -3.611855 H        1 UNL1     0.2098
     109 H         -1.900477   -0.671247   -4.021584 H        1 UNL1     0.0234
     110 H         -1.203948   0.342523   -2.717774 H        1 UNL1     0.0234
     111 H         -1.642793   1.0479   -4.233921 H        1 UNL1     0.0234
     112 H         -0.652574   3.347175   -3.166715 H        1 UNL1     0.0342
     113 H         -0.292042   2.352359   -1.711176 H        1 UNL1     0.0342
     114 H         0.444225   3.94504   -1.909288 H        1 UNL1     0.0342
     115 H         2.746312   -2.491436   -4.507969 H        1 UNL1     0.0234
     116 H         3.956353   -1.339464   -3.933909 H        1 UNL1     0.0234
     117 H         3.663655   -2.897921   -3.134418 H        1 UNL1     0.0234
     118 H         -2.693912   -1.390855   -6.635305 H        1 UNL1     0.0309
     119 H         -3.817879   -1.964585   -7.906364 H        1 UNL1     0.0309
     120 H         -4.399843   -1.320193   -6.387077 H        1 UNL1     0.0309
     121 H         1.688126   -4.145932   -5.886777 H        1 UNL1     0.0524
     122 H         0.294125   -3.450548   -6.723472 H        1 UNL1     0.0524
     123 H         1.937825   -2.917119   -7.156421 H        1 UNL1     0.0524
@<TRIPOS>BOND
     1     1     2    1
     2     1    42    1
     3     2     3    2
     4     3     4    1
     5     4     5    2
     6     5     7    1
     7     6    75    1
     8     6    76    1
     9     6    77    1
    10     7     9   am
    11     9    10    1
    12    10    11    2
    13    10    43    1
    14    11    14    1
    15    11    15    1
    16    12    13   ar
    17    12    27   ar
    18    12    43    1
    19    13    14    1
    20    13    30   ar
    21    14    17    2
    22    15    16    1
    23    16    17    1
    24    16    18    1
    25    16    22    1
    26    18    19    1
    27    19    20    1
    28    20    21    1
    29    21    22    1
    30    23    24    1
    31    23    88    1
    32    23    89    1
    33    24    25    1
    34    24    26    1
    35    24    90    1
    36    25    91    1
    37    25    92    1
    38    25    93    1
    39    26    94    1
    40    26    95    1
    41    26    96    1
    42    27    28   ar
    43    28    29   ar
    44    29    30   ar
    45    29    31    1
    46    30    33    1
    47    31    32    1
    48    32    33    1
    49    32    35    1
    50    34    97    1
    51    34    98    1
    52    34    99    1
    53    35    61    1
    54    36    37    1
    55    36    60    1
    56    37    38    1
    57    38    39    1
    58    39    40    1
    59    40    41    1
    60    41    42    1
    61    45   100    1
    62    47   101    1
    63    47   102    1
    64    47   103    1
    65    48   104    1
    66    49   105    1
    67    49   106    1
    68    49   107    1
    69    50   108    1
    70    51    59    1
    71    52   109    1
    72    52   110    1
    73    52   111    1
    74    53    54    1
    75    54    55    2
    76    54    56    1
    77    56   112    1
    78    56   113    1
    79    56   114    1
    80    57   115    1
    81    57   116    1
    82    57   117    1
    83    58   118    1
    84    58   119    1
    85    58   120    1
    86    59   121    1
    87    59   122    1
    88    59   123    1
    89    60    61    2
    90     1    47    1
    91     1    62    1
    92     2    63    1
    93     3    64    1
    94     4    65    1
    95     5     6    1
    96     7     8    2
    97     9    78    1
    98    15    79    1
    99    18    80    1
   100    18    81    1
   101    19    82    1
   102    19    83    1
   103    20    23    1
   104    21    84    1
   105    21    85    1
   106    22    86    1
   107    22    87    1
   108    27    45    1
   109    28    34    1
   110    32    58    1
   111    33    46    2
   112    36    51    1
   113    36    66    1
   114    37    52    1
   115    37    67    1
   116    38    53    1
   117    38    68    1
   118    42    48    1
   119    42    72    1
   120    43    44    2
   121    60    73    1
   122    61    74    1
   123    39    69    1
   124    39    57    1
   125    40    70    1
   126    40    50    1
   127    41    71    1
   128    41    49    1
