@<TRIPOS>MOLECULE
*****
 123 128 0 0 0
SMALL
GASTEIGER

@<TRIPOS>ATOM
     1 C         -1.13856   1.475626   3.682983 C.3        1 UNL1     0.0009
     2 C         -0.839344   0.727606   5.352706 C.2        1 UNL1     -0.0787
     3 C         -1.284202   -0.092888   6.459475 C.2        1 UNL1     -0.0649
     4 C         -0.406161   -0.554316   7.831512 C.2        1 UNL1     -0.0542
     5 C         -0.320133   -1.485086   8.896099 C.2        1 UNL1     0.0115
     6 C         -1.072098   -2.631198   9.627054 C.3        1 UNL1     -0.0348
     7 C         1.068527   -1.633893   9.687596 C.2        1 UNL1     0.2441
     8 O         1.263561   -1.137176   10.788396 O.2        1 UNL1     -0.2702
     9 N         1.952086   -2.587489   9.152684 N.am        1 UNL1     -0.2772
     10 C         2.750496   -2.015155   8.189202 C.2        1 UNL1     0.1049
     11 C         2.226412   -1.919061   6.980764 C.2        1 UNL1     0.0801
     12 C         4.22352   -0.041837   7.749256 C.ar        1 UNL1     0.0753
     13 C         3.480205   0.144531   6.54039 C.ar        1 UNL1     0.0305
     14 C         2.544321   -0.86671   6.054013 C.2        1 UNL1     0.0924
     15 N         1.113198   -2.477266   6.475107 N.pl3        1 UNL1     -0.3170
     16 C         1.08305   -2.197027   5.064146 C.3        1 UNL1     0.1275
     17 N         1.85287   -0.9071   4.918587 N.2        1 UNL1     -0.2557
     18 C         1.918984   -3.269458   4.372187 C.3        1 UNL1     0.0016
     19 C         1.36972   -4.635098   4.752878 C.3        1 UNL1     0.0026
     20 N         -0.024815   -4.710148   4.339761 N.3        1 UNL1     -0.3018
     21 C         -0.897339   -3.679436   4.906068 C.3        1 UNL1     0.0026
     22 C         -0.329562   -2.316115   4.507468 C.3        1 UNL1     0.0016
     23 C         -0.553781   -6.058862   4.382314 C.3        1 UNL1     0.0012
     24 C         0.588263   -7.082471   4.480888 C.3        1 UNL1     -0.0339
     25 C         0.835868   -7.510318   5.936806 C.3        1 UNL1     -0.0615
     26 C         0.295578   -8.276749   3.589364 C.3        1 UNL1     -0.0615
     27 C         5.200872   0.869018   8.143267 C.ar        1 UNL1     0.1347
     28 C         5.549762   1.978276   7.393684 C.ar        1 UNL1     0.0342
     29 C         4.771041   2.16776   6.232283 C.ar        1 UNL1     0.1435
     30 C         3.764173   1.283189   5.843731 C.ar        1 UNL1     0.0774
     31 O         5.060586   3.140397   5.340572 O.3        1 UNL1     -0.4436
     32 C         4.401315   2.732612   4.13229 C.3        1 UNL1     0.3143
     33 C         3.28761   1.808315   4.581234 C.2        1 UNL1     0.2504
     34 C         6.749585   2.854858   7.621998 C.3        1 UNL1     -0.0327
     35 O         3.778359   3.895783   3.573529 O.2        1 UNL1     -0.4528
     36 C         3.748976   3.357115   -0.183738 C.3        1 UNL1     0.0854
     37 C         3.120823   2.17355   -1.015676 C.3        1 UNL1     0.0236
     38 C         2.086485   2.623221   -2.155713 C.3        1 UNL1     0.1131
     39 C         0.901817   3.608125   -1.796836 C.3        1 UNL1     0.0200
     40 C         0.021297   3.395589   -0.396139 C.3        1 UNL1     0.0661
     41 C         -0.677659   1.94119   0.127115 C.3        1 UNL1     0.0091
     42 C         -0.961694   1.299524   1.822105 C.3        1 UNL1     0.0661
     43 C         3.981703   -1.284176   8.524097 C.2        1 UNL1     0.2131
     44 O         4.781095   -1.750004   9.31575 O.2        1 UNL1     -0.2851
     45 O         5.846368   0.638148   9.35631 O.3        1 UNL1     -0.5056
     46 O         2.234351   1.575083   4.031598 O.2        1 UNL1     -0.2836
     47 C         -2.134358   2.661403   3.793896 C.3        1 UNL1     -0.0566
     48 O         -2.366751   0.904329   1.559895 O.3        1 UNL1     -0.3909
     49 C         -0.101064   0.802816   -0.684757 C.3        1 UNL1     -0.0577
     50 O         0.64257   4.051608   0.690775 O.3        1 UNL1     -0.3910
     51 O         3.201926   4.634687   -0.420335 O.3        1 UNL1     -0.3753
     52 C         2.886106   0.903385   -0.134461 C.3        1 UNL1     -0.0564
     53 O         1.777531   1.540021   -3.147455 O.3        1 UNL1     -0.4608
     54 C         0.85049   1.62363   -4.153206 C.2        1 UNL1     0.3042
     55 O         -0.075864   2.427562   -4.250152 O.2        1 UNL1     -0.2512
     56 C         1.073609   0.633381   -5.260607 C.3        1 UNL1     0.0332
     57 C         1.38092   5.090694   -2.158258 C.3        1 UNL1     -0.0567
     58 C         5.434961   1.913016   3.325217 C.3        1 UNL1     0.0210
     59 C         1.976747   4.897839   0.26198 C.3        1 UNL1     0.0372
     60 C         3.750841   3.157397   1.291141 C.2        1 UNL1     -0.0208
     61 C         3.426364   3.994669   2.277263 C.2        1 UNL1     0.0882
     62 H         -0.131483   1.908416   3.717606 H        1 UNL1     0.0365
     63 H         0.125924   1.171693   5.604723 H        1 UNL1     0.0576
     64 H         -2.225886   -0.644989   6.42046 H        1 UNL1     0.0615
     65 H         0.465625   0.10543   7.817062 H        1 UNL1     0.0622
     66 H         4.805394   3.377033   -0.486447 H        1 UNL1     0.0645
     67 H         3.962908   1.794498   -1.620468 H        1 UNL1     0.0362
     68 H         2.763938   3.204207   -2.799945 H        1 UNL1     0.0741
     69 H         0.144534   3.53653   -2.566124 H        1 UNL1     0.0359
     70 H         -0.861416   4.021412   -0.628996 H        1 UNL1     0.0600
     71 H         -1.68574   2.038836   -0.321433 H        1 UNL1     0.0348
     72 H         -0.819717   2.384803   1.928535 H        1 UNL1     0.0602
     73 H         4.193626   2.218966   1.515946 H        1 UNL1     0.0628
     74 H         2.916693   4.948067   2.134068 H        1 UNL1     0.1022
     75 H         -0.544217   -3.603915   9.478068 H        1 UNL1     0.0279
     76 H         -1.129904   -2.559632   10.710847 H        1 UNL1     0.0279
     77 H         -2.054336   -2.847157   9.181778 H        1 UNL1     0.0279
     78 H         1.421634   -3.333463   8.707464 H        1 UNL1     0.1553
     79 H         0.654557   -3.271873   6.881533 H        1 UNL1     0.1484
     80 H         1.878941   -3.109701   3.287917 H        1 UNL1     0.0317
     81 H         2.972441   -3.19182   4.661759 H        1 UNL1     0.0317
     82 H         1.4744   -4.83011   5.830341 H        1 UNL1     0.0428
     83 H         1.981308   -5.384977   4.250192 H        1 UNL1     0.0428
     84 H         -1.920434   -3.709404   4.518526 H        1 UNL1     0.0428
     85 H         -1.019602   -3.798547   5.991508 H        1 UNL1     0.0428
     86 H         -1.060453   -1.594696   4.822653 H        1 UNL1     0.0317
     87 H         -0.328297   -2.215552   3.415231 H        1 UNL1     0.0317
     88 H         -1.183562   -6.150656   5.276878 H        1 UNL1     0.0429
     89 H         -1.194992   -6.263254   3.515223 H        1 UNL1     0.0429
     90 H         1.508019   -6.633428   4.087667 H        1 UNL1     0.0308
     91 H         0.077445   -7.095746   6.607646 H        1 UNL1     0.0233
     92 H         0.83578   -8.599296   6.024757 H        1 UNL1     0.0233
     93 H         1.810114   -7.173378   6.311173 H        1 UNL1     0.0233
     94 H         0.864681   -9.149293   3.927929 H        1 UNL1     0.0233
     95 H         -0.767643   -8.527974   3.638427 H        1 UNL1     0.0233
     96 H         0.562418   -8.072717   2.548626 H        1 UNL1     0.0233
     97 H         6.752745   3.290215   8.616827 H        1 UNL1     0.0280
     98 H         7.691627   2.297909   7.534691 H        1 UNL1     0.0280
     99 H         6.752717   3.675252   6.885765 H        1 UNL1     0.0280
     100 H         6.018611   -0.26823   9.541869 H        1 UNL1     0.2922
     101 H         -1.631903   3.589966   3.523773 H        1 UNL1     0.0236
     102 H         -2.617022   2.72609   4.76849 H        1 UNL1     0.0236
     103 H         -2.965225   2.573157   3.074128 H        1 UNL1     0.0236
     104 H         -2.930415   1.68201   1.740076 H        1 UNL1     0.2098
     105 H         -0.735959   0.466366   -1.500552 H        1 UNL1     0.0234
     106 H         0.916046   0.966701   -1.040505 H        1 UNL1     0.0234
     107 H         0.0   0.0   0.0 H        1 UNL1     0.0234
     108 H         0.861887   3.369469   1.354368 H        1 UNL1     0.2098
     109 H         3.380772   0.013257   -0.547607 H        1 UNL1     0.0234
     110 H         3.190749   1.040922   0.908621 H        1 UNL1     0.0234
     111 H         1.820171   0.64758   -0.068949 H        1 UNL1     0.0234
     112 H         0.702142   -0.351008   -4.960047 H        1 UNL1     0.0342
     113 H         0.616796   0.954629   -6.195468 H        1 UNL1     0.0342
     114 H         2.155594   0.547376   -5.431128 H        1 UNL1     0.0342
     115 H         2.319867   5.351567   -1.650803 H        1 UNL1     0.0234
     116 H         1.526469   5.262137   -3.226655 H        1 UNL1     0.0234
     117 H         0.706696   5.876348   -1.776012 H        1 UNL1     0.0234
     118 H         6.225546   2.552047   2.894379 H        1 UNL1     0.0309
     119 H         5.900068   1.113087   3.910016 H        1 UNL1     0.0309
     120 H         4.994322   1.429395   2.446552 H        1 UNL1     0.0309
     121 H         2.225133   5.225017   1.271245 H        1 UNL1     0.0524
     122 H         1.397027   5.705283   -0.21551 H        1 UNL1     0.0524
     123 H         1.366538   3.999842   0.298575 H        1 UNL1     0.0524
@<TRIPOS>BOND
     1     1     2    1
     2     1    42    1
     3     2     3    2
     4     3     4    1
     5     4     5    2
     6     5     7    1
     7     6    75    1
     8     6    76    1
     9     6    77    1
    10     7     9   am
    11     9    10    1
    12    10    11    2
    13    10    43    1
    14    11    14    1
    15    11    15    1
    16    12    13   ar
    17    12    27   ar
    18    12    43    1
    19    13    14    1
    20    13    30   ar
    21    14    17    2
    22    15    16    1
    23    16    17    1
    24    16    18    1
    25    16    22    1
    26    18    19    1
    27    19    20    1
    28    20    21    1
    29    21    22    1
    30    23    24    1
    31    23    88    1
    32    23    89    1
    33    24    25    1
    34    24    26    1
    35    24    90    1
    36    25    91    1
    37    25    92    1
    38    25    93    1
    39    26    94    1
    40    26    95    1
    41    26    96    1
    42    27    28   ar
    43    28    29   ar
    44    29    30   ar
    45    29    31    1
    46    30    33    1
    47    31    32    1
    48    32    33    1
    49    32    35    1
    50    34    97    1
    51    34    98    1
    52    34    99    1
    53    35    61    1
    54    36    37    1
    55    36    60    1
    56    37    38    1
    57    38    39    1
    58    39    40    1
    59    40    41    1
    60    41    42    1
    61    45   100    1
    62    47   101    1
    63    47   102    1
    64    47   103    1
    65    48   104    1
    66    49   105    1
    67    49   106    1
    68    49   107    1
    69    50   108    1
    70    51    59    1
    71    52   109    1
    72    52   110    1
    73    52   111    1
    74    53    54    1
    75    54    55    2
    76    54    56    1
    77    56   112    1
    78    56   113    1
    79    56   114    1
    80    57   115    1
    81    57   116    1
    82    57   117    1
    83    58   118    1
    84    58   119    1
    85    58   120    1
    86    59   121    1
    87    59   122    1
    88    59   123    1
    89    60    61    2
    90     1    47    1
    91     1    62    1
    92     2    63    1
    93     3    64    1
    94     4    65    1
    95     5     6    1
    96     7     8    2
    97     9    78    1
    98    15    79    1
    99    18    80    1
   100    18    81    1
   101    19    82    1
   102    19    83    1
   103    20    23    1
   104    21    84    1
   105    21    85    1
   106    22    86    1
   107    22    87    1
   108    27    45    1
   109    28    34    1
   110    32    58    1
   111    33    46    2
   112    36    51    1
   113    36    66    1
   114    37    52    1
   115    37    67    1
   116    38    53    1
   117    38    68    1
   118    42    48    1
   119    42    72    1
   120    43    44    2
   121    60    73    1
   122    61    74    1
   123    39    69    1
   124    39    57    1
   125    40    70    1
   126    40    50    1
   127    41    71    1
   128    41    49    1
