@<TRIPOS>MOLECULE
*****
 123 128 0 0 0
SMALL
GASTEIGER

@<TRIPOS>ATOM
     1 C         5.168498   1.753315   0.4595 C.3        1 UNL1     0.0009
     2 C         6.600012   2.558696   -0.400249 C.2        1 UNL1     -0.0787
     3 C         7.878165   2.46001   -1.073027 C.2        1 UNL1     -0.0649
     4 C         8.750788   3.69431   -1.835516 C.2        1 UNL1     -0.0542
     5 C         9.765381   3.985903   -2.780319 C.2        1 UNL1     0.0115
     6 C         10.888968   3.359573   -3.651287 C.3        1 UNL1     -0.0348
     7 C         9.856635   5.468229   -3.389722 C.2        1 UNL1     0.2441
     8 O         10.682262   6.290843   -3.018007 O.2        1 UNL1     -0.2702
     9 N         9.09974   5.672992   -4.556484 N.am        1 UNL1     -0.2772
     10 C         7.818638   6.059608   -4.236128 C.2        1 UNL1     0.1049
     11 C         6.974947   5.088291   -3.937883 C.2        1 UNL1     0.0801
     12 C         6.527488   7.667943   -2.820669 C.ar        1 UNL1     0.0753
     13 C         5.77147   6.540411   -2.36711 C.ar        1 UNL1     0.0305
     14 C         5.885352   5.23373   -3.011057 C.2        1 UNL1     0.0924
     15 N         7.097268   3.759114   -4.095536 N.pl3        1 UNL1     -0.3170
     16 C         5.829467   3.159888   -3.773256 C.3        1 UNL1     0.1275
     17 N         5.198166   4.116409   -2.791294 N.2        1 UNL1     -0.2557
     18 C         4.96949   3.216559   -5.032196 C.3        1 UNL1     0.0016
     19 C         5.718311   2.530994   -6.163945 C.3        1 UNL1     0.0026
     20 N         5.991242   1.153631   -5.777411 N.3        1 UNL1     -0.3018
     21 C         6.761638   0.995558   -4.542149 C.3        1 UNL1     0.0026
     22 C         5.988907   1.687528   -3.41789 C.3        1 UNL1     0.0016
     23 C         6.429861   0.332513   -6.888277 C.3        1 UNL1     0.0012
     24 C         5.269016   0.080956   -7.863425 C.3        1 UNL1     -0.0339
     25 C         5.356818   1.001633   -9.091717 C.3        1 UNL1     -0.0615
     26 C         5.233472   -1.383639   -8.264024 C.3        1 UNL1     -0.0615
     27 C         6.3253   8.936409   -2.281937 C.ar        1 UNL1     0.1347
     28 C         5.371542   9.207072   -1.316982 C.ar        1 UNL1     0.0342
     29 C         4.673095   8.073052   -0.85079 C.ar        1 UNL1     0.1435
     30 C         4.890264   6.790314   -1.355408 C.ar        1 UNL1     0.0774
     31 O         3.636877   8.187528   0.008369 O.3        1 UNL1     -0.4436
     32 C         2.914965   6.954164   -0.127749 C.3        1 UNL1     0.3143
     33 C         3.925694   5.960653   -0.664008 C.2        1 UNL1     0.2504
     34 C         4.926579   10.573684   -0.875985 C.3        1 UNL1     -0.0327
     35 O         2.561948   6.519419   1.191201 O.2        1 UNL1     -0.4528
     36 C         -0.682413   4.585169   0.815855 C.3        1 UNL1     0.0854
     37 C         -0.992206   3.32301   -0.077736 C.3        1 UNL1     0.0236
     38 C         -1.587743   2.06297   0.715598 C.3        1 UNL1     0.1131
     39 C         -0.85442   1.534449   2.01374 C.3        1 UNL1     0.0200
     40 C         0.807044   1.389702   2.045773 C.3        1 UNL1     0.0661
     41 C         1.760152   0.619415   0.872805 C.3        1 UNL1     0.0091
     42 C         3.464368   0.981815   0.298597 C.3        1 UNL1     0.0661
     43 C         7.471287   7.458855   -3.946629 C.2        1 UNL1     0.2131
     44 O         7.866708   8.35595   -4.668847 O.2        1 UNL1     -0.2851
     45 O         7.134503   9.971134   -2.746666 O.3        1 UNL1     -0.5056
     46 O         3.942961   4.757338   -0.531387 O.2        1 UNL1     -0.2836
     47 C         5.57316   1.326332   1.896133 C.3        1 UNL1     -0.0566
     48 O         3.914019   -0.428959   0.380123 O.3        1 UNL1     -0.3909
     49 C         0.919088   0.384458   -0.362063 C.3        1 UNL1     -0.0577
     50 O         1.408902   2.60846   2.433223 O.3        1 UNL1     -0.3910
     51 O         -0.798565   4.397686   2.20826 O.3        1 UNL1     -0.3753
     52 C         0.045802   3.161137   -1.235875 C.3        1 UNL1     -0.0564
     53 O         -2.194947   1.02227   -0.179149 O.3        1 UNL1     -0.4608
     54 C         -2.395707   -0.292178   0.15229 C.2        1 UNL1     0.3042
     55 O         -1.819067   -1.275598   -0.310538 O.2        1 UNL1     -0.2512
     56 C         -3.4047   -0.488839   1.247722 C.3        1 UNL1     0.0332
     57 C         -1.568619   2.205163   3.277954 C.3        1 UNL1     -0.0567
     58 C         1.833559   7.19703   -1.206223 C.3        1 UNL1     0.0210
     59 C         -1.108108   5.577749   2.948192 C.3        1 UNL1     0.0372
     60 C         0.644978   5.214461   0.576726 C.2        1 UNL1     -0.0208
     61 C         1.562612   5.6515   1.44026 C.2        1 UNL1     0.0882
     62 H         4.692639   2.737419   0.547863 H        1 UNL1     0.0365
     63 H         6.333892   3.612548   -0.295146 H        1 UNL1     0.0576
     64 H         8.334996   1.493004   -1.295092 H        1 UNL1     0.0615
     65 H         8.265263   4.610054   -1.487433 H        1 UNL1     0.0622
     66 H         -1.429136   5.330868   0.508635 H        1 UNL1     0.0645
     67 H         -1.86133   3.631006   -0.684631 H        1 UNL1     0.0362
     68 H         -2.533007   2.500001   1.071971 H        1 UNL1     0.0741
     69 H         -1.184383   0.523524   2.212646 H        1 UNL1     0.0359
     70 H         0.924088   0.730849   2.927404 H        1 UNL1     0.0600
     71 H         1.8066   -0.401038   1.301146 H        1 UNL1     0.0348
     72 H         3.363804   1.471562   1.278062 H        1 UNL1     0.0602
     73 H         0.75693   5.410081   -0.460794 H        1 UNL1     0.0628
     74 H         1.551203   5.442564   2.510518 H        1 UNL1     0.1022
     75 H         10.916073   2.251128   -3.518429 H        1 UNL1     0.0279
     76 H         10.78264   3.463836   -4.728734 H        1 UNL1     0.0279
     77 H         11.896634   3.643082   -3.313748 H        1 UNL1     0.0279
     78 H         9.035163   4.802165   -5.079521 H        1 UNL1     0.1553
     79 H         7.75923   3.330412   -4.715982 H        1 UNL1     0.1484
     80 H         4.009539   2.725522   -4.831837 H        1 UNL1     0.0317
     81 H         4.740893   4.252772   -5.303595 H        1 UNL1     0.0317
     82 H         6.647322   3.062298   -6.418047 H        1 UNL1     0.0428
     83 H         5.088106   2.584416   -7.052223 H        1 UNL1     0.0428
     84 H         6.884167   -0.046838   -4.231974 H        1 UNL1     0.0428
     85 H         7.790963   1.363871   -4.652383 H        1 UNL1     0.0428
     86 H         6.510564   1.438866   -2.512336 H        1 UNL1     0.0317
     87 H         5.010397   1.209669   -3.286493 H        1 UNL1     0.0317
     88 H         7.222691   0.873799   -7.420935 H        1 UNL1     0.0429
     89 H         6.864853   -0.612499   -6.538266 H        1 UNL1     0.0429
     90 H         4.319921   0.274017   -7.349462 H        1 UNL1     0.0308
     91 H         6.309262   0.876343   -9.615412 H        1 UNL1     0.0233
     92 H         4.537021   0.799839   -9.785129 H        1 UNL1     0.0233
     93 H         5.277589   2.062487   -8.824982 H        1 UNL1     0.0233
     94 H         4.552018   -1.527538   -9.109452 H        1 UNL1     0.0233
     95 H         6.22982   -1.710295   -8.574748 H        1 UNL1     0.0233
     96 H         4.896718   -2.015404   -7.437321 H        1 UNL1     0.0233
     97 H         4.131124   10.524884   -0.138353 H        1 UNL1     0.0280
     98 H         5.739339   11.141374   -0.404385 H        1 UNL1     0.0280
     99 H         4.556538   11.140016   -1.746291 H        1 UNL1     0.0280
     100 H         6.665548   10.725706   -3.057029 H        1 UNL1     0.2922
     101 H         4.710285   0.90456   2.411121 H        1 UNL1     0.0236
     102 H         6.037918   2.129434   2.467105 H        1 UNL1     0.0236
     103 H         6.320576   0.51544   1.892107 H        1 UNL1     0.0236
     104 H         4.333173   -0.554913   1.25386 H        1 UNL1     0.2098
     105 H         0.701541   1.282477   -0.934816 H        1 UNL1     0.0234
     106 H         1.285945   -0.403451   -1.019742 H        1 UNL1     0.0234
     107 H         0.0   -0.0   0.0 H        1 UNL1     0.0234
     108 H         1.22112   3.260822   1.731133 H        1 UNL1     0.2098
     109 H         1.074261   3.061123   -0.861735 H        1 UNL1     0.0234
     110 H         -0.183398   2.32523   -1.905554 H        1 UNL1     0.0234
     111 H         0.054082   4.037649   -1.897392 H        1 UNL1     0.0234
     112 H         -3.501769   -1.554284   1.477398 H        1 UNL1     0.0342
     113 H         -3.156051   0.082315   2.140919 H        1 UNL1     0.0342
     114 H         -4.378673   -0.132397   0.885106 H        1 UNL1     0.0342
     115 H         -2.640473   1.966639   3.315665 H        1 UNL1     0.0234
     116 H         -1.13429   1.917658   4.23751 H        1 UNL1     0.0234
     117 H         -1.597053   3.307509   3.233613 H        1 UNL1     0.0234
     118 H         0.932754   7.679983   -0.788715 H        1 UNL1     0.0309
     119 H         2.196599   7.78769   -2.053292 H        1 UNL1     0.0309
     120 H         1.44631   6.26432   -1.630718 H        1 UNL1     0.0309
     121 H         -0.270994   6.26625   2.836107 H        1 UNL1     0.0524
     122 H         -2.009398   6.086151   2.567088 H        1 UNL1     0.0524
     123 H         -1.256598   5.335764   3.996757 H        1 UNL1     0.0524
@<TRIPOS>BOND
     1     1     2    1
     2     1    42    1
     3     2     3    2
     4     3     4    1
     5     4     5    2
     6     5     7    1
     7     6    75    1
     8     6    76    1
     9     6    77    1
    10     7     9   am
    11     9    10    1
    12    10    11    2
    13    10    43    1
    14    11    14    1
    15    11    15    1
    16    12    13   ar
    17    12    27   ar
    18    12    43    1
    19    13    14    1
    20    13    30   ar
    21    14    17    2
    22    15    16    1
    23    16    17    1
    24    16    18    1
    25    16    22    1
    26    18    19    1
    27    19    20    1
    28    20    21    1
    29    21    22    1
    30    23    24    1
    31    23    88    1
    32    23    89    1
    33    24    25    1
    34    24    26    1
    35    24    90    1
    36    25    91    1
    37    25    92    1
    38    25    93    1
    39    26    94    1
    40    26    95    1
    41    26    96    1
    42    27    28   ar
    43    28    29   ar
    44    29    30   ar
    45    29    31    1
    46    30    33    1
    47    31    32    1
    48    32    33    1
    49    32    35    1
    50    34    97    1
    51    34    98    1
    52    34    99    1
    53    35    61    1
    54    36    37    1
    55    36    60    1
    56    37    38    1
    57    38    39    1
    58    39    40    1
    59    40    41    1
    60    41    42    1
    61    45   100    1
    62    47   101    1
    63    47   102    1
    64    47   103    1
    65    48   104    1
    66    49   105    1
    67    49   106    1
    68    49   107    1
    69    50   108    1
    70    51    59    1
    71    52   109    1
    72    52   110    1
    73    52   111    1
    74    53    54    1
    75    54    55    2
    76    54    56    1
    77    56   112    1
    78    56   113    1
    79    56   114    1
    80    57   115    1
    81    57   116    1
    82    57   117    1
    83    58   118    1
    84    58   119    1
    85    58   120    1
    86    59   121    1
    87    59   122    1
    88    59   123    1
    89    60    61    2
    90     1    47    1
    91     1    62    1
    92     2    63    1
    93     3    64    1
    94     4    65    1
    95     5     6    1
    96     7     8    2
    97     9    78    1
    98    15    79    1
    99    18    80    1
   100    18    81    1
   101    19    82    1
   102    19    83    1
   103    20    23    1
   104    21    84    1
   105    21    85    1
   106    22    86    1
   107    22    87    1
   108    27    45    1
   109    28    34    1
   110    32    58    1
   111    33    46    2
   112    36    51    1
   113    36    66    1
   114    37    52    1
   115    37    67    1
   116    38    53    1
   117    38    68    1
   118    42    48    1
   119    42    72    1
   120    43    44    2
   121    60    73    1
   122    61    74    1
   123    39    69    1
   124    39    57    1
   125    40    70    1
   126    40    50    1
   127    41    71    1
   128    41    49    1
