@<TRIPOS>MOLECULE
*****
 123 128 0 0 0
SMALL
GASTEIGER

@<TRIPOS>ATOM
     1 C         -3.388969   2.710877   -2.966764 C.3        1 UNL1     0.0009
     2 C         -3.573323   3.348827   -4.69768 C.2        1 UNL1     -0.0787
     3 C         -3.664554   4.457018   -5.624845 C.2        1 UNL1     -0.0649
     4 C         -3.7171   4.397232   -7.316005 C.2        1 UNL1     -0.0542
     5 C         -3.516853   5.132141   -8.510529 C.2        1 UNL1     0.0115
     6 C         -3.264154   6.553637   -9.083954 C.3        1 UNL1     -0.0348
     7 C         -3.33388   4.334818   -9.891755 C.2        1 UNL1     0.2441
     8 O         -4.228256   4.222569   -10.718808 O.2        1 UNL1     -0.2702
     9 N         -2.005681   3.998306   -10.206077 N.am        1 UNL1     -0.2772
     10 C         -1.673478   2.784247   -9.650178 C.2        1 UNL1     0.1049
     11 C         -1.299025   2.80686   -8.383886 C.2        1 UNL1     0.0801
     12 C         -2.474034   0.426403   -9.411394 C.ar        1 UNL1     0.0753
     13 C         -2.245529   0.573967   -8.006183 C.ar        1 UNL1     0.0305
     14 C         -1.526431   1.724908   -7.464624 C.2        1 UNL1     0.0924
     15 N         -0.984502   3.84829   -7.594567 N.pl3        1 UNL1     -0.3170
     16 C         -0.477321   3.322659   -6.354916 C.3        1 UNL1     0.1275
     17 N         -1.141456   1.97454   -6.216263 N.2        1 UNL1     -0.2557
     18 C         1.009049   3.043768   -6.556475 C.3        1 UNL1     0.0016
     19 C         1.685772   4.324256   -7.01906 C.3        1 UNL1     0.0026
     20 N         1.477949   5.35392   -6.010284 N.3        1 UNL1     -0.3018
     21 C         0.077034   5.648893   -5.702392 C.3        1 UNL1     0.0026
     22 C         -0.582139   4.349926   -5.235414 C.3        1 UNL1     0.0016
     23 C         2.32491   6.513747   -6.205482 C.3        1 UNL1     0.0012
     24 C         3.081385   6.409947   -7.539172 C.3        1 UNL1     -0.0339
     25 C         3.782933   5.049397   -7.683366 C.3        1 UNL1     -0.0615
     26 C         2.134973   6.676352   -8.696805 C.3        1 UNL1     -0.0615
     27 C         -3.052312   -0.729267   -9.931143 C.ar        1 UNL1     0.1347
     28 C         -3.405835   -1.816519   -9.15207 C.ar        1 UNL1     0.0342
     29 C         -3.21676   -1.62917   -7.766316 C.ar        1 UNL1     0.1435
     30 C         -2.672032   -0.462752   -7.227836 C.ar        1 UNL1     0.0774
     31 O         -3.410076   -2.635693   -6.886232 O.3        1 UNL1     -0.4436
     32 C         -2.68941   -2.233715   -5.711528 C.3        1 UNL1     0.3143
     33 C         -2.587584   -0.724783   -5.806227 C.2        1 UNL1     0.2504
     34 C         -3.794048   -3.176837   -9.660917 C.3        1 UNL1     -0.0327
     35 O         -3.520385   -2.525664   -4.581263 O.2        1 UNL1     -0.4528
     36 C         -1.150018   -3.27178   -1.711985 C.3        1 UNL1     0.0854
     37 C         -0.009872   -2.369289   -1.101164 C.3        1 UNL1     0.0236
     38 C         -0.123215   -2.113754   0.47795 C.3        1 UNL1     0.1131
     39 C         -1.488041   -1.605083   1.095018 C.3        1 UNL1     0.0200
     40 C         -2.357369   -0.396851   0.342102 C.3        1 UNL1     0.0661
     41 C         -1.737528   1.090496   -0.188188 C.3        1 UNL1     0.0091
     42 C         -2.219571   2.140593   -1.613085 C.3        1 UNL1     0.0661
     43 C         -1.992889   1.50776   -10.306618 C.2        1 UNL1     0.2131
     44 O         -1.766362   1.348922   -11.492448 O.2        1 UNL1     -0.2851
     45 O         -3.282089   -0.774058   -11.304691 O.3        1 UNL1     -0.5056
     46 O         -2.482867   0.081189   -4.908843 O.2        1 UNL1     -0.2836
     47 C         -4.715825   2.89133   -2.181352 C.3        1 UNL1     -0.0566
     48 O         -2.260063   3.394088   -0.821739 O.3        1 UNL1     -0.3909
     49 C         -0.226778   1.019006   -0.183896 C.3        1 UNL1     -0.0577
     50 O         -3.221457   -0.937016   -0.637335 O.3        1 UNL1     -0.3910
     51 O         -2.212083   -3.59478   -0.843009 O.3        1 UNL1     -0.3753
     52 C         0.439929   -1.248515   -2.094387 C.3        1 UNL1     -0.0564
     53 O         1.132332   -1.563658   1.088951 O.3        1 UNL1     -0.4608
     54 C         1.186217   -0.631351   2.091862 C.2        1 UNL1     0.3042
     55 O         0.420123   0.313874   2.274859 O.2        1 UNL1     -0.2512
     56 C         2.292014   -0.873615   3.079402 C.3        1 UNL1     0.0332
     57 C         -2.290264   -2.887653   1.614274 C.3        1 UNL1     -0.0567
     58 C         -1.27186   -2.838407   -5.839706 C.3        1 UNL1     0.0210
     59 C         -2.222082   -4.946113   -0.385117 C.3        1 UNL1     0.0372
     60 C         -1.763126   -2.749172   -2.96344 C.2        1 UNL1     -0.0208
     61 C         -3.042817   -2.665793   -3.329752 C.2        1 UNL1     0.0882
     62 H         -3.396584   1.688405   -3.363254 H        1 UNL1     0.0365
     63 H         -3.717625   2.414754   -5.24463 H        1 UNL1     0.0576
     64 H         -3.53899   5.490838   -5.295363 H        1 UNL1     0.0615
     65 H         -3.922882   3.345611   -7.533327 H        1 UNL1     0.0622
     66 H         -0.64255   -4.205589   -1.992205 H        1 UNL1     0.0645
     67 H         0.892328   -3.002933   -1.156757 H        1 UNL1     0.0362
     68 H         -0.00613   -3.146485   0.840276 H        1 UNL1     0.0741
     69 H         -1.29251   -1.183072   2.07179 H        1 UNL1     0.0359
     70 H         -3.029035   -0.10066   1.170472 H        1 UNL1     0.0600
     71 H         -1.928016   1.710475   0.709753 H        1 UNL1     0.0348
     72 H         -3.072525   1.471925   -1.426889 H        1 UNL1     0.0602
     73 H         -0.995459   -2.529989   -3.663364 H        1 UNL1     0.0628
     74 H         -3.887852   -2.816995   -2.657227 H        1 UNL1     0.1022
     75 H         -3.969676   7.290621   -8.629942 H        1 UNL1     0.0279
     76 H         -2.293807   6.996903   -8.871796 H        1 UNL1     0.0279
     77 H         -3.522694   6.634332   -10.149949 H        1 UNL1     0.0279
     78 H         -1.374854   4.696134   -9.81727 H        1 UNL1     0.1553
     79 H         -0.735279   4.755787   -7.942807 H        1 UNL1     0.1484
     80 H         1.436329   2.683247   -5.612959 H        1 UNL1     0.0317
     81 H         1.161448   2.248279   -7.293783 H        1 UNL1     0.0317
     82 H         1.311877   4.650646   -8.000684 H        1 UNL1     0.0428
     83 H         2.744279   4.102461   -7.158414 H        1 UNL1     0.0428
     84 H         -0.050938   6.366915   -4.886378 H        1 UNL1     0.0428
     85 H         -0.438647   6.116484   -6.552538 H        1 UNL1     0.0428
     86 H         -1.561846   4.628771   -4.89423 H        1 UNL1     0.0317
     87 H         -0.090257   3.986372   -4.324932 H        1 UNL1     0.0317
     88 H         1.683195   7.404006   -6.23604 H        1 UNL1     0.0429
     89 H         3.01917   6.646399   -5.365732 H        1 UNL1     0.0429
     90 H         3.839861   7.200442   -7.584371 H        1 UNL1     0.0308
     91 H         4.77572   5.159172   -8.129937 H        1 UNL1     0.0233
     92 H         3.878974   4.559385   -6.711629 H        1 UNL1     0.0233
     93 H         3.222005   4.355834   -8.321461 H        1 UNL1     0.0233
     94 H         2.086564   5.801455   -9.354108 H        1 UNL1     0.0233
     95 H         1.127293   6.870047   -8.318619 H        1 UNL1     0.0233
     96 H         2.461006   7.535934   -9.289079 H        1 UNL1     0.0233
     97 H         -4.652052   -3.133809   -10.325152 H        1 UNL1     0.0280
     98 H         -2.988832   -3.647296   -10.240186 H        1 UNL1     0.0280
     99 H         -4.047955   -3.830399   -8.810339 H        1 UNL1     0.0280
     100 H         -2.612436   -0.36875   -11.827101 H        1 UNL1     0.2922
     101 H         -5.224506   1.93155   -2.09348 H        1 UNL1     0.0236
     102 H         -5.362582   3.659867   -2.603299 H        1 UNL1     0.0236
     103 H         -4.540794   3.21161   -1.140689 H        1 UNL1     0.0236
     104 H         -1.921646   3.189762   0.071958 H        1 UNL1     0.2098
     105 H         0.238746   1.29876   -1.125616 H        1 UNL1     0.0234
     106 H         0.251506   1.54216   0.644042 H        1 UNL1     0.0234
     107 H         0.0   0.0   0.0 H        1 UNL1     0.0234
     108 H         -4.059617   -1.164866   -0.190861 H        1 UNL1     0.2098
     109 H         0.843213   -1.659524   -3.030413 H        1 UNL1     0.0234
     110 H         -0.355406   -0.530641   -2.322078 H        1 UNL1     0.0234
     111 H         1.242903   -0.630694   -1.670739 H        1 UNL1     0.0234
     112 H         1.898012   -0.823477   4.099007 H        1 UNL1     0.0342
     113 H         2.798767   -1.821115   2.902513 H        1 UNL1     0.0342
     114 H         3.035156   -0.072375   2.965745 H        1 UNL1     0.0342
     115 H         -2.874812   -2.665571   2.517696 H        1 UNL1     0.0234
     116 H         -2.974281   -3.312052   0.876674 H        1 UNL1     0.0234
     117 H         -1.635754   -3.698411   1.977909 H        1 UNL1     0.0234
     118 H         -0.578412   -2.433742   -5.081825 H        1 UNL1     0.0309
     119 H         -1.264504   -3.931612   -5.78448 H        1 UNL1     0.0309
     120 H         -0.788571   -2.579441   -6.788112 H        1 UNL1     0.0309
     121 H         -2.952273   -5.491274   -0.982592 H        1 UNL1     0.0524
     122 H         -1.246062   -5.441079   -0.520875 H        1 UNL1     0.0524
     123 H         -2.493865   -4.984803   0.665945 H        1 UNL1     0.0524
@<TRIPOS>BOND
     1     1     2    1
     2     1    42    1
     3     2     3    2
     4     3     4    1
     5     4     5    2
     6     5     7    1
     7     6    75    1
     8     6    76    1
     9     6    77    1
    10     7     9   am
    11     9    10    1
    12    10    11    2
    13    10    43    1
    14    11    14    1
    15    11    15    1
    16    12    13   ar
    17    12    27   ar
    18    12    43    1
    19    13    14    1
    20    13    30   ar
    21    14    17    2
    22    15    16    1
    23    16    17    1
    24    16    18    1
    25    16    22    1
    26    18    19    1
    27    19    20    1
    28    20    21    1
    29    21    22    1
    30    23    24    1
    31    23    88    1
    32    23    89    1
    33    24    25    1
    34    24    26    1
    35    24    90    1
    36    25    91    1
    37    25    92    1
    38    25    93    1
    39    26    94    1
    40    26    95    1
    41    26    96    1
    42    27    28   ar
    43    28    29   ar
    44    29    30   ar
    45    29    31    1
    46    30    33    1
    47    31    32    1
    48    32    33    1
    49    32    35    1
    50    34    97    1
    51    34    98    1
    52    34    99    1
    53    35    61    1
    54    36    37    1
    55    36    60    1
    56    37    38    1
    57    38    39    1
    58    39    40    1
    59    40    41    1
    60    41    42    1
    61    45   100    1
    62    47   101    1
    63    47   102    1
    64    47   103    1
    65    48   104    1
    66    49   105    1
    67    49   106    1
    68    49   107    1
    69    50   108    1
    70    51    59    1
    71    52   109    1
    72    52   110    1
    73    52   111    1
    74    53    54    1
    75    54    55    2
    76    54    56    1
    77    56   112    1
    78    56   113    1
    79    56   114    1
    80    57   115    1
    81    57   116    1
    82    57   117    1
    83    58   118    1
    84    58   119    1
    85    58   120    1
    86    59   121    1
    87    59   122    1
    88    59   123    1
    89    60    61    2
    90     1    47    1
    91     1    62    1
    92     2    63    1
    93     3    64    1
    94     4    65    1
    95     5     6    1
    96     7     8    2
    97     9    78    1
    98    15    79    1
    99    18    80    1
   100    18    81    1
   101    19    82    1
   102    19    83    1
   103    20    23    1
   104    21    84    1
   105    21    85    1
   106    22    86    1
   107    22    87    1
   108    27    45    1
   109    28    34    1
   110    32    58    1
   111    33    46    2
   112    36    51    1
   113    36    66    1
   114    37    52    1
   115    37    67    1
   116    38    53    1
   117    38    68    1
   118    42    48    1
   119    42    72    1
   120    43    44    2
   121    60    73    1
   122    61    74    1
   123    39    69    1
   124    39    57    1
   125    40    70    1
   126    40    50    1
   127    41    71    1
   128    41    49    1
