@<TRIPOS>MOLECULE
*****
 123 128 0 0 0
SMALL
GASTEIGER

@<TRIPOS>ATOM
     1 C         3.963965   -2.760184   2.009622 C.3        1 UNL1     0.0009
     2 C         4.636438   -4.487781   1.994572 C.2        1 UNL1     -0.0787
     3 C         4.946655   -5.720962   2.686727 C.2        1 UNL1     -0.0649
     4 C         5.520708   -7.169683   2.024891 C.2        1 UNL1     -0.0542
     5 C         5.657297   -8.565114   2.227854 C.2        1 UNL1     0.0115
     6 C         5.514411   -9.702345   3.276478 C.3        1 UNL1     -0.0348
     7 C         5.953453   -9.508745   0.963402 C.2        1 UNL1     0.2441
     8 O         7.063865   -9.956967   0.713184 O.2        1 UNL1     -0.2702
     9 N         4.8076   -9.99803   0.312425 N.am        1 UNL1     -0.2772
     10 C         4.388772   -9.111915   -0.653342 C.2        1 UNL1     0.1049
     11 C         3.641904   -8.105941   -0.235697 C.2        1 UNL1     0.0801
     12 C         5.207393   -7.751926   -2.586635 C.ar        1 UNL1     0.0753
     13 C         4.549374   -6.635552   -1.978911 C.ar        1 UNL1     0.0305
     14 C         3.635282   -6.806856   -0.851905 C.2        1 UNL1     0.0924
     15 N         3.041883   -7.910008   0.950942 N.pl3        1 UNL1     -0.3170
     16 C         2.207813   -6.743402   0.834273 C.3        1 UNL1     0.1275
     17 N         2.871251   -5.909975   -0.234826 N.2        1 UNL1     -0.2557
     18 C         0.873788   -7.197933   0.249909 C.3        1 UNL1     0.0016
     19 C         0.301932   -8.292363   1.136923 C.3        1 UNL1     0.0026
     20 N         0.131086   -7.762275   2.4826 N.3        1 UNL1     -0.3018
     21 C         1.350304   -7.243053   3.105724 C.3        1 UNL1     0.0026
     22 C         1.905172   -6.141978   2.200379 C.3        1 UNL1     0.0016
     23 C         -0.678053   -8.618075   3.327315 C.3        1 UNL1     0.0012
     24 C         -1.984946   -8.998741   2.613958 C.3        1 UNL1     -0.0339
     25 C         -2.277315   -10.502903   2.740737 C.3        1 UNL1     -0.0615
     26 C         -3.132892   -8.159266   3.14714 C.3        1 UNL1     -0.0615
     27 C         5.981288   -7.596389   -3.734247 C.ar        1 UNL1     0.1347
     28 C         6.137915   -6.385421   -4.384689 C.ar        1 UNL1     0.0342
     29 C         5.521112   -5.291712   -3.740858 C.ar        1 UNL1     0.1435
     30 C         4.772712   -5.426303   -2.570814 C.ar        1 UNL1     0.0774
     31 O         5.48996   -4.066071   -4.308169 O.3        1 UNL1     -0.4436
     32 C         4.421271   -3.38249   -3.636236 C.3        1 UNL1     0.3143
     33 C         4.269362   -4.094417   -2.307215 C.2        1 UNL1     0.2504
     34 C         6.739379   -6.188347   -5.748325 C.3        1 UNL1     -0.0327
     35 O         4.878744   -2.055352   -3.348701 O.2        1 UNL1     -0.4528
     36 C         1.785572   0.144269   -3.393923 C.3        1 UNL1     0.0854
     37 C         0.464148   0.022874   -2.5415 C.3        1 UNL1     0.0236
     38 C         0.07121   1.338393   -1.712795 C.3        1 UNL1     0.1131
     39 C         1.148992   2.034638   -0.787646 C.3        1 UNL1     0.0200
     40 C         2.138957   1.118145   0.193398 C.3        1 UNL1     0.0661
     41 C         1.63041   -0.103453   1.254854 C.3        1 UNL1     0.0091
     42 C         2.468332   -1.648705   1.779721 C.3        1 UNL1     0.0661
     43 C         4.965656   -9.095996   -2.00586 C.2        1 UNL1     0.2131
     44 O         5.124576   -10.134047   -2.622245 O.2        1 UNL1     -0.2851
     45 O         6.625019   -8.72561   -4.236153 O.3        1 UNL1     -0.5056
     46 O         3.848489   -3.654699   -1.260616 O.2        1 UNL1     -0.2836
     47 C         4.972192   -1.794954   2.689174 C.3        1 UNL1     -0.0566
     48 O         2.193007   -1.442776   3.222255 O.3        1 UNL1     -0.3909
     49 C         0.198242   -0.466196   0.931118 C.3        1 UNL1     -0.0577
     50 O         3.291454   0.698819   -0.509196 O.3        1 UNL1     -0.3910
     51 O         2.544726   1.314584   -3.190256 O.3        1 UNL1     -0.3753
     52 C         0.280156   -1.414857   -1.954961 C.3        1 UNL1     -0.0564
     53 O         -1.34017   1.327587   -1.202683 O.3        1 UNL1     -0.4608
     54 C         -1.87812   0.379792   -0.371884 C.2        1 UNL1     0.3042
     55 O         -2.811665   -0.383744   -0.61549 O.2        1 UNL1     -0.2512
     56 C         -1.172838   0.268513   0.949823 C.3        1 UNL1     0.0332
     57 C         1.822706   3.212521   -1.634331 C.3        1 UNL1     -0.0567
     58 C         3.148225   -3.624536   -4.480212 C.3        1 UNL1     0.0210
     59 C         3.95744   1.115878   -3.165325 C.3        1 UNL1     0.0372
     60 C         2.724052   -1.003806   -3.266101 C.2        1 UNL1     -0.0208
     61 C         4.047593   -1.024397   -3.103127 C.2        1 UNL1     0.0882
     62 H         4.150465   -2.698686   0.930666 H        1 UNL1     0.0365
     63 H         4.99415   -4.558048   0.965216 H        1 UNL1     0.0576
     64 H         4.668134   -5.876721   3.731367 H        1 UNL1     0.0615
     65 H         5.841872   -6.88727   1.018621 H        1 UNL1     0.0622
     66 H         1.442106   0.137891   -4.437972 H        1 UNL1     0.0645
     67 H         -0.340175   -0.009071   -3.296883 H        1 UNL1     0.0362
     68 H         -0.093834   2.038282   -2.546124 H        1 UNL1     0.0741
     69 H         0.638887   2.673584   -0.079163 H        1 UNL1     0.0359
     70 H         2.505214   1.903626   0.881827 H        1 UNL1     0.0600
     71 H         1.500138   0.488159   2.182206 H        1 UNL1     0.0348
     72 H         3.258473   -0.995225   1.382285 H        1 UNL1     0.0602
     73 H         2.198247   -1.907141   -3.452554 H        1 UNL1     0.0628
     74 H         4.651515   -0.152036   -2.851129 H        1 UNL1     0.1022
     75 H         5.34167   -10.682728   2.770471 H        1 UNL1     0.0279
     76 H         6.387427   -9.90708   3.892104 H        1 UNL1     0.0279
     77 H         4.602489   -9.608365   3.884152 H        1 UNL1     0.0279
     78 H         4.049718   -10.099707   0.984253 H        1 UNL1     0.1553
     79 H         2.861688   -8.643332   1.611774 H        1 UNL1     0.1484
     80 H         0.19757   -6.336579   0.190206 H        1 UNL1     0.0317
     81 H         1.00058   -7.56838   -0.773001 H        1 UNL1     0.0317
     82 H         0.941091   -9.187549   1.14232 H        1 UNL1     0.0428
     83 H         -0.648077   -8.603124   0.701077 H        1 UNL1     0.0428
     84 H         1.180405   -6.778912   4.082207 H        1 UNL1     0.0428
     85 H         2.075742   -8.041953   3.312647 H        1 UNL1     0.0428
     86 H         2.714995   -5.697202   2.74842 H        1 UNL1     0.0317
     87 H         1.177941   -5.32534   2.114753 H        1 UNL1     0.0317
     88 H         -0.109582   -9.535529   3.528349 H        1 UNL1     0.0429
     89 H         -0.879514   -8.145508   4.297298 H        1 UNL1     0.0429
     90 H         -1.899553   -8.748087   1.549959 H        1 UNL1     0.0308
     91 H         -2.696991   -10.745206   3.721688 H        1 UNL1     0.0233
     92 H         -2.97227   -10.828239   1.963046 H        1 UNL1     0.0233
     93 H         -1.37541   -11.115236   2.620522 H        1 UNL1     0.0233
     94 H         -4.035823   -8.332444   2.551691 H        1 UNL1     0.0233
     95 H         -3.352056   -8.439735   4.181194 H        1 UNL1     0.0233
     96 H         -2.896126   -7.092132   3.113446 H        1 UNL1     0.0233
     97 H         5.980439   -6.112121   -6.52126 H        1 UNL1     0.0280
     98 H         7.326874   -5.263097   -5.811713 H        1 UNL1     0.0280
     99 H         7.394011   -7.041725   -5.989774 H        1 UNL1     0.0280
     100 H         6.693865   -9.440014   -3.627458 H        1 UNL1     0.2922
     101 H         4.902443   -1.893311   3.772279 H        1 UNL1     0.0236
     102 H         4.861172   -0.760939   2.364412 H        1 UNL1     0.0236
     103 H         6.017582   -2.053471   2.451431 H        1 UNL1     0.0236
     104 H         1.415082   -0.8556   3.293172 H        1 UNL1     0.2098
     105 H         0.020454   -1.532255   0.813981 H        1 UNL1     0.0234
     106 H         -0.544121   -0.030632   1.59978 H        1 UNL1     0.0234
     107 H         -0.0   0.0   0.0 H        1 UNL1     0.0234
     108 H         4.039611   0.726534   0.117908 H        1 UNL1     0.2098
     109 H         -0.760383   -1.615283   -1.663723 H        1 UNL1     0.0234
     110 H         0.63   -2.203173   -2.630173 H        1 UNL1     0.0234
     111 H         0.876846   -1.55997   -1.04455 H        1 UNL1     0.0234
     112 H         -1.496823   -0.638395   1.469339 H        1 UNL1     0.0342
     113 H         -0.089721   0.289566   0.839107 H        1 UNL1     0.0342
     114 H         -1.461252   1.131031   1.566302 H        1 UNL1     0.0342
     115 H         1.073438   3.914622   -2.025279 H        1 UNL1     0.0234
     116 H         2.559044   3.794869   -1.076902 H        1 UNL1     0.0234
     117 H         2.298286   2.866581   -2.568188 H        1 UNL1     0.0234
     118 H         2.288178   -3.039193   -4.110483 H        1 UNL1     0.0309
     119 H         3.292488   -3.415562   -5.544976 H        1 UNL1     0.0309
     120 H         2.794159   -4.659459   -4.419566 H        1 UNL1     0.0309
     121 H         4.253493   0.730899   -4.140774 H        1 UNL1     0.0524
     122 H         4.509249   2.055848   -2.99799 H        1 UNL1     0.0524
     123 H         4.223626   0.407268   -2.386152 H        1 UNL1     0.0524
@<TRIPOS>BOND
     1     1     2    1
     2     1    42    1
     3     2     3    2
     4     3     4    1
     5     4     5    2
     6     5     7    1
     7     6    75    1
     8     6    76    1
     9     6    77    1
    10     7     9   am
    11     9    10    1
    12    10    11    2
    13    10    43    1
    14    11    14    1
    15    11    15    1
    16    12    13   ar
    17    12    27   ar
    18    12    43    1
    19    13    14    1
    20    13    30   ar
    21    14    17    2
    22    15    16    1
    23    16    17    1
    24    16    18    1
    25    16    22    1
    26    18    19    1
    27    19    20    1
    28    20    21    1
    29    21    22    1
    30    23    24    1
    31    23    88    1
    32    23    89    1
    33    24    25    1
    34    24    26    1
    35    24    90    1
    36    25    91    1
    37    25    92    1
    38    25    93    1
    39    26    94    1
    40    26    95    1
    41    26    96    1
    42    27    28   ar
    43    28    29   ar
    44    29    30   ar
    45    29    31    1
    46    30    33    1
    47    31    32    1
    48    32    33    1
    49    32    35    1
    50    34    97    1
    51    34    98    1
    52    34    99    1
    53    35    61    1
    54    36    37    1
    55    36    60    1
    56    37    38    1
    57    38    39    1
    58    39    40    1
    59    40    41    1
    60    41    42    1
    61    45   100    1
    62    47   101    1
    63    47   102    1
    64    47   103    1
    65    48   104    1
    66    49   105    1
    67    49   106    1
    68    49   107    1
    69    50   108    1
    70    51    59    1
    71    52   109    1
    72    52   110    1
    73    52   111    1
    74    53    54    1
    75    54    55    2
    76    54    56    1
    77    56   112    1
    78    56   113    1
    79    56   114    1
    80    57   115    1
    81    57   116    1
    82    57   117    1
    83    58   118    1
    84    58   119    1
    85    58   120    1
    86    59   121    1
    87    59   122    1
    88    59   123    1
    89    60    61    2
    90     1    47    1
    91     1    62    1
    92     2    63    1
    93     3    64    1
    94     4    65    1
    95     5     6    1
    96     7     8    2
    97     9    78    1
    98    15    79    1
    99    18    80    1
   100    18    81    1
   101    19    82    1
   102    19    83    1
   103    20    23    1
   104    21    84    1
   105    21    85    1
   106    22    86    1
   107    22    87    1
   108    27    45    1
   109    28    34    1
   110    32    58    1
   111    33    46    2
   112    36    51    1
   113    36    66    1
   114    37    52    1
   115    37    67    1
   116    38    53    1
   117    38    68    1
   118    42    48    1
   119    42    72    1
   120    43    44    2
   121    60    73    1
   122    61    74    1
   123    39    69    1
   124    39    57    1
   125    40    70    1
   126    40    50    1
   127    41    71    1
   128    41    49    1
