@<TRIPOS>MOLECULE
*****
 123 128 0 0 0
SMALL
GASTEIGER

@<TRIPOS>ATOM
     1 C         4.719137   2.780783   -0.093509 C.3        1 UNL1     0.0009
     2 C         5.855539   3.840605   -1.104651 C.2        1 UNL1     -0.0787
     3 C         7.054707   3.991564   -1.901678 C.2        1 UNL1     -0.0649
     4 C         7.565153   5.355184   -2.765589 C.2        1 UNL1     -0.0542
     5 C         8.398377   5.821818   -3.812045 C.2        1 UNL1     0.0115
     6 C         9.541526   5.417707   -4.783243 C.3        1 UNL1     -0.0348
     7 C         8.110763   7.26736   -4.448188 C.2        1 UNL1     0.2441
     8 O         8.772397   8.258929   -4.173314 O.2        1 UNL1     -0.2702
     9 N         7.219451   7.265699   -5.535253 N.am        1 UNL1     -0.2772
     10 C         5.921919   7.38289   -5.092533 C.2        1 UNL1     0.1049
     11 C         5.338748   6.265877   -4.69704 C.2        1 UNL1     0.0801
     12 C         4.457349   8.729704   -3.576466 C.ar        1 UNL1     0.0753
     13 C         4.007774   7.484195   -3.033144 C.ar        1 UNL1     0.0305
     14 C         4.337148   6.209518   -3.666993 C.2        1 UNL1     0.0924
     15 N         5.727693   4.98816   -4.847669 N.pl3        1 UNL1     -0.3170
     16 C         4.654758   4.145447   -4.390612 C.3        1 UNL1     0.1275
     17 N         3.929911   4.980338   -3.363346 N.2        1 UNL1     -0.2557
     18 C         3.686195   3.974048   -5.556892 C.3        1 UNL1     0.0016
     19 C         4.452811   3.42342   -6.748822 C.3        1 UNL1     0.0026
     20 N         5.050573   2.149764   -6.372645 N.3        1 UNL1     -0.3018
     21 C         5.951548   2.2023   -5.219453 C.3        1 UNL1     0.0026
     22 C         5.1596   2.753849   -4.032649 C.3        1 UNL1     0.0016
     23 C         5.546745   1.401706   -7.510567 C.3        1 UNL1     0.0012
     24 C         4.379015   0.875484   -8.359834 C.3        1 UNL1     -0.0339
     25 C         4.322847   1.569883   -9.730495 C.3        1 UNL1     -0.0615
     26 C         4.47655   -0.633575   -8.501284 C.3        1 UNL1     -0.0615
     27 C         4.040268   9.944624   -3.037829 C.ar        1 UNL1     0.1347
     28 C         3.14749   10.040712   -1.985324 C.ar        1 UNL1     0.0342
     29 C         2.756476   8.801521   -1.435162 C.ar        1 UNL1     0.1435
     30 C         3.194446   7.577041   -1.941177 C.ar        1 UNL1     0.0774
     31 O         1.806925   8.723857   -0.47739 O.3        1 UNL1     -0.4436
     32 C         1.356766   7.361439   -0.522638 C.3        1 UNL1     0.3143
     33 C         2.501018   6.586596   -1.144345 C.2        1 UNL1     0.2504
     34 C         2.464019   11.296555   -1.520753 C.3        1 UNL1     -0.0327
     35 O         1.233126   6.908485   0.831171 O.2        1 UNL1     -0.4528
     36 C         -1.541443   4.318212   0.812579 C.3        1 UNL1     0.0854
     37 C         -1.657334   2.98837   -0.027429 C.3        1 UNL1     0.0236
     38 C         -1.889972   1.65946   0.839532 C.3        1 UNL1     0.1131
     39 C         -0.939546   1.344564   2.064195 C.3        1 UNL1     0.0200
     40 C         0.709545   1.556669   1.930219 C.3        1 UNL1     0.0661
     41 C         1.688963   0.965169   0.67783 C.3        1 UNL1     0.0091
     42 C         3.212793   1.660263   -0.070626 C.3        1 UNL1     0.0661
     43 C         5.311828   8.685965   -4.788989 C.2        1 UNL1     0.2131
     44 O         5.434616   9.620485   -5.559918 O.2        1 UNL1     -0.2851
     45 O         4.56038   11.110381   -3.596338 O.3        1 UNL1     -0.5056
     46 O         2.78863   5.419751   -0.997357 O.2        1 UNL1     -0.2836
     47 C         5.341572   2.500234   1.300711 C.3        1 UNL1     -0.0566
     48 O         3.960305   0.380702   -0.015255 O.3        1 UNL1     -0.3909
     49 C         0.803647   0.51382   -0.462343 C.3        1 UNL1     -0.0577
     50 O         1.070197   2.888222   2.237823 O.3        1 UNL1     -0.3910
     51 O         -1.480859   4.159559   2.212075 O.3        1 UNL1     -0.3753
     52 C         -0.72449   3.009587   -1.282141 C.3        1 UNL1     -0.0564
     53 O         -2.342571   0.482788   0.025331 O.3        1 UNL1     -0.4608
     54 C         -2.252106   -0.830246   0.40702 C.2        1 UNL1     0.3042
     55 O         -1.42758   -1.662324   0.030667 O.2        1 UNL1     -0.2512
     56 C         -3.264468   -1.226255   1.443849 C.3        1 UNL1     0.0332
     57 C         -1.656645   1.892699   3.384608 C.3        1 UNL1     -0.0567
     58 C         0.1503   7.331286   -1.489622 C.3        1 UNL1     0.0210
     59 C         -2.660007   4.554553   2.911686 C.3        1 UNL1     0.0372
     60 C         -0.409076   5.205857   0.431799 C.2        1 UNL1     -0.0208
     61 C         0.471775   5.857712   1.192016 C.2        1 UNL1     0.0882
     62 H         4.053939   3.644079   0.028728 H        1 UNL1     0.0365
     63 H         5.380852   4.817087   -0.987925 H        1 UNL1     0.0576
     64 H         7.684944   3.136218   -2.155237 H        1 UNL1     0.0615
     65 H         6.930082   6.158823   -2.383055 H        1 UNL1     0.0622
     66 H         -2.456644   4.877294   0.571992 H        1 UNL1     0.0645
     67 H         -2.626296   3.083464   -0.54765 H        1 UNL1     0.0362
     68 H         -2.868431   1.898377   1.283447 H        1 UNL1     0.0741
     69 H         -1.024375   0.294312   2.309517 H        1 UNL1     0.0359
     70 H         1.049032   0.969116   2.804628 H        1 UNL1     0.0600
     71 H         1.994016   -0.006477   1.113494 H        1 UNL1     0.0348
     72 H         3.103726   2.151756   0.907052 H        1 UNL1     0.0602
     73 H         -0.441523   5.384074   -0.614353 H        1 UNL1     0.0628
     74 H         0.60794   5.688965   2.260763 H        1 UNL1     0.1022
     75 H         9.78365   4.333053   -4.673984 H        1 UNL1     0.0279
     76 H         9.328219   5.504188   -5.8463 H        1 UNL1     0.0279
     77 H         10.504192   5.881963   -4.523549 H        1 UNL1     0.0279
     78 H         7.293431   6.383103   -6.036879 H        1 UNL1     0.1553
     79 H         6.403715   4.687992   -5.525772 H        1 UNL1     0.1484
     80 H         2.877618   3.297982   -5.253734 H        1 UNL1     0.0317
     81 H         3.215729   4.927991   -5.818249 H        1 UNL1     0.0317
     82 H         5.217532   4.130357   -7.102878 H        1 UNL1     0.0428
     83 H         3.743764   3.31064   -7.569542 H        1 UNL1     0.0428
     84 H         6.323951   1.221192   -4.908719 H        1 UNL1     0.0428
     85 H         6.862511   2.7764   -5.438251 H        1 UNL1     0.0428
     86 H         5.806673   2.653544   -3.181049 H        1 UNL1     0.0317
     87 H         4.323556   2.084285   -3.796402 H        1 UNL1     0.0317
     88 H         6.150293   2.079694   -8.128108 H        1 UNL1     0.0429
     89 H         6.205789   0.583372   -7.193134 H        1 UNL1     0.0429
     90 H         3.436787   1.066629   -7.832688 H        1 UNL1     0.0308
     91 H         5.313032   1.616535   -10.193592 H        1 UNL1     0.0233
     92 H         3.63761   1.046099   -10.401099 H        1 UNL1     0.0233
     93 H         3.954975   2.600787   -9.661621 H        1 UNL1     0.0233
     94 H         3.917596   -0.967268   -9.382224 H        1 UNL1     0.0233
     95 H         5.52104   -0.929804   -8.632628 H        1 UNL1     0.0233
     96 H         4.072831   -1.14369   -7.622215 H        1 UNL1     0.0233
     97 H         1.382288   11.211607   -1.56402 H        1 UNL1     0.0280
     98 H         2.70508   11.537051   -0.477055 H        1 UNL1     0.0280
     99 H         2.770135   12.141209   -2.159461 H        1 UNL1     0.0280
     100 H         4.071808   11.446168   -4.327205 H        1 UNL1     0.2922
     101 H         4.560204   2.199824   1.998475 H        1 UNL1     0.0236
     102 H         5.932267   3.332611   1.681776 H        1 UNL1     0.0236
     103 H         6.039964   1.647039   1.278359 H        1 UNL1     0.0236
     104 H         4.413402   0.340992   0.849671 H        1 UNL1     0.2098
     105 H         0.38436   1.324221   -1.053326 H        1 UNL1     0.0234
     106 H         1.248386   -0.238106   -1.114064 H        1 UNL1     0.0234
     107 H         0.0   -0.0   0.0 H        1 UNL1     0.0234
     108 H         0.799006   3.444187   1.482094 H        1 UNL1     0.2098
     109 H         -0.972249   3.829328   -1.970873 H        1 UNL1     0.0234
     110 H         0.339651   3.054709   -1.026581 H        1 UNL1     0.0234
     111 H         -0.81786   2.087706   -1.871517 H        1 UNL1     0.0234
     112 H         -3.700203   -2.19657   1.187001 H        1 UNL1     0.0342
     113 H         -2.839388   -1.241894   2.446298 H        1 UNL1     0.0342
     114 H         -4.072398   -0.481702   1.436465 H        1 UNL1     0.0342
     115 H         -2.684128   1.514914   3.478124 H        1 UNL1     0.0234
     116 H         -1.131114   1.647331   4.309626 H        1 UNL1     0.0234
     117 H         -1.830714   2.982399   3.370584 H        1 UNL1     0.0234
     118 H         -0.800357   7.142877   -0.960699 H        1 UNL1     0.0309
     119 H         0.053959   8.244772   -2.084991 H        1 UNL1     0.0309
     120 H         0.207665   6.505959   -2.20771 H        1 UNL1     0.0309
     121 H         -2.366175   4.828704   3.924534 H        1 UNL1     0.0524
     122 H         -3.141615   5.435601   2.455784 H        1 UNL1     0.0524
     123 H         -3.373907   3.736142   2.937056 H        1 UNL1     0.0524
@<TRIPOS>BOND
     1     1     2    1
     2     1    42    1
     3     2     3    2
     4     3     4    1
     5     4     5    2
     6     5     7    1
     7     6    75    1
     8     6    76    1
     9     6    77    1
    10     7     9   am
    11     9    10    1
    12    10    11    2
    13    10    43    1
    14    11    14    1
    15    11    15    1
    16    12    13   ar
    17    12    27   ar
    18    12    43    1
    19    13    14    1
    20    13    30   ar
    21    14    17    2
    22    15    16    1
    23    16    17    1
    24    16    18    1
    25    16    22    1
    26    18    19    1
    27    19    20    1
    28    20    21    1
    29    21    22    1
    30    23    24    1
    31    23    88    1
    32    23    89    1
    33    24    25    1
    34    24    26    1
    35    24    90    1
    36    25    91    1
    37    25    92    1
    38    25    93    1
    39    26    94    1
    40    26    95    1
    41    26    96    1
    42    27    28   ar
    43    28    29   ar
    44    29    30   ar
    45    29    31    1
    46    30    33    1
    47    31    32    1
    48    32    33    1
    49    32    35    1
    50    34    97    1
    51    34    98    1
    52    34    99    1
    53    35    61    1
    54    36    37    1
    55    36    60    1
    56    37    38    1
    57    38    39    1
    58    39    40    1
    59    40    41    1
    60    41    42    1
    61    45   100    1
    62    47   101    1
    63    47   102    1
    64    47   103    1
    65    48   104    1
    66    49   105    1
    67    49   106    1
    68    49   107    1
    69    50   108    1
    70    51    59    1
    71    52   109    1
    72    52   110    1
    73    52   111    1
    74    53    54    1
    75    54    55    2
    76    54    56    1
    77    56   112    1
    78    56   113    1
    79    56   114    1
    80    57   115    1
    81    57   116    1
    82    57   117    1
    83    58   118    1
    84    58   119    1
    85    58   120    1
    86    59   121    1
    87    59   122    1
    88    59   123    1
    89    60    61    2
    90     1    47    1
    91     1    62    1
    92     2    63    1
    93     3    64    1
    94     4    65    1
    95     5     6    1
    96     7     8    2
    97     9    78    1
    98    15    79    1
    99    18    80    1
   100    18    81    1
   101    19    82    1
   102    19    83    1
   103    20    23    1
   104    21    84    1
   105    21    85    1
   106    22    86    1
   107    22    87    1
   108    27    45    1
   109    28    34    1
   110    32    58    1
   111    33    46    2
   112    36    51    1
   113    36    66    1
   114    37    52    1
   115    37    67    1
   116    38    53    1
   117    38    68    1
   118    42    48    1
   119    42    72    1
   120    43    44    2
   121    60    73    1
   122    61    74    1
   123    39    69    1
   124    39    57    1
   125    40    70    1
   126    40    50    1
   127    41    71    1
   128    41    49    1
