@<TRIPOS>MOLECULE
*****
 123 128 0 0 0
SMALL
GASTEIGER

@<TRIPOS>ATOM
     1 C         5.166575   1.759888   0.45669 C.3        1 UNL1     0.0009
     2 C         6.596023   2.568473   -0.403487 C.2        1 UNL1     -0.0787
     3 C         7.873757   2.472556   -1.077462 C.2        1 UNL1     -0.0649
     4 C         8.743695   3.709045   -1.839471 C.2        1 UNL1     -0.0542
     5 C         9.756993   4.003243   -2.784856 C.2        1 UNL1     0.0115
     6 C         10.880857   3.379625   -3.657412 C.3        1 UNL1     -0.0348
     7 C         9.845288   5.486322   -3.392862 C.2        1 UNL1     0.2441
     8 O         10.669883   6.309922   -3.021039 O.2        1 UNL1     -0.2702
     9 N         9.087053   5.691   -4.558768 N.am        1 UNL1     -0.2772
     10 C         7.805595   6.075193   -4.236927 C.2        1 UNL1     0.1049
     11 C         6.963757   5.102194   -3.938923 C.2        1 UNL1     0.0801
     12 C         6.513025   7.679996   -2.818759 C.ar        1 UNL1     0.0753
     13 C         5.75925   6.550773   -2.365672 C.ar        1 UNL1     0.0305
     14 C         5.874724   5.244922   -3.011016 C.2        1 UNL1     0.0924
     15 N         7.088124   3.773378   -4.098004 N.pl3        1 UNL1     -0.3170
     16 C         5.821587   3.17175   -3.77523 C.3        1 UNL1     0.1275
     17 N         5.189562   4.126256   -2.791775 N.2        1 UNL1     -0.2557
     18 C         4.960434   3.228259   -5.033373 C.3        1 UNL1     0.0016
     19 C         5.709405   2.545049   -6.166447 C.3        1 UNL1     0.0026
     20 N         5.98493   1.167753   -5.781519 N.3        1 UNL1     -0.3018
     21 C         6.756648   1.009719   -4.547078 C.3        1 UNL1     0.0026
     22 C         5.983751   1.699302   -3.421467 C.3        1 UNL1     0.0016
     23 C         6.42394   0.348462   -6.893578 C.3        1 UNL1     0.0012
     24 C         5.26267   0.095967   -7.867978 C.3        1 UNL1     -0.0339
     25 C         5.347903   1.018006   -9.095428 C.3        1 UNL1     -0.0615
     26 C         5.229186   -1.368286   -8.270003 C.3        1 UNL1     -0.0615
     27 C         6.309218   8.947593   -2.278592 C.ar        1 UNL1     0.1347
     28 C         5.355849   9.21573   -1.312548 C.ar        1 UNL1     0.0342
     29 C         4.659667   8.080101   -0.846885 C.ar        1 UNL1     0.1435
     30 C         4.878507   6.798223   -1.352965 C.ar        1 UNL1     0.0774
     31 O         3.624003   8.192021   0.013278 O.3        1 UNL1     -0.4436
     32 C         2.903999   6.957608   -0.123445 C.3        1 UNL1     0.3143
     33 C         3.915897   5.966292   -0.661562 C.2        1 UNL1     0.2504
     34 C         4.909022   10.58117   -0.869808 C.3        1 UNL1     -0.0327
     35 O         2.552833   6.520973   1.195374 O.2        1 UNL1     -0.4528
     36 C         -0.68867   4.581769   0.820893 C.3        1 UNL1     0.0854
     37 C         -0.997159   3.319992   -0.073687 C.3        1 UNL1     0.0236
     38 C         -1.589942   2.058187   0.718905 C.3        1 UNL1     0.1131
     39 C         -0.854634   1.529582   2.015889 C.3        1 UNL1     0.0200
     40 C         0.807091   1.387533   2.04635 C.3        1 UNL1     0.0661
     41 C         1.760453   0.619979   0.871798 C.3        1 UNL1     0.0091
     42 C         3.463577   0.98575   0.296485 C.3        1 UNL1     0.0661
     43 C         7.456195   7.473578   -3.945737 C.2        1 UNL1     0.2131
     44 O         7.84952   8.372039   -4.667402 O.2        1 UNL1     -0.2851
     45 O         7.11632   9.984107   -2.742986 O.3        1 UNL1     -0.5056
     46 O         3.935254   4.762876   -0.530153 O.2        1 UNL1     -0.2836
     47 C         5.573174   1.332143   1.89255 C.3        1 UNL1     -0.0566
     48 O         3.915614   -0.424364   0.376221 O.3        1 UNL1     -0.3909
     49 C         0.918712   0.384868   -0.362581 C.3        1 UNL1     -0.0577
     50 O         1.407281   2.606893   2.434495 O.3        1 UNL1     -0.3910
     51 O         -0.803314   4.392713   2.21321 O.3        1 UNL1     -0.3753
     52 C         0.040115   3.160975   -1.232878 C.3        1 UNL1     -0.0564
     53 O         -2.196207   1.017381   -0.176355 O.3        1 UNL1     -0.4608
     54 C         -2.394523   -0.297724   0.153949 C.2        1 UNL1     0.3042
     55 O         -1.812494   -1.279287   -0.306067 O.2        1 UNL1     -0.2512
     56 C         -3.408389   -0.497655   1.244277 C.3        1 UNL1     0.0332
     57 C         -1.568844   2.197866   3.281383 C.3        1 UNL1     -0.0567
     58 C         1.821268   7.199769   -1.200747 C.3        1 UNL1     0.0210
     59 C         -1.114157   5.571529   2.954582 C.3        1 UNL1     0.0372
     60 C         0.637481   5.213479   0.581249 C.2        1 UNL1     -0.0208
     61 C         1.555138   5.651167   1.444429 C.2        1 UNL1     0.0882
     62 H         4.689176   2.74312   0.546441 H        1 UNL1     0.0365
     63 H         6.328264   3.621782   -0.297107 H        1 UNL1     0.0576
     64 H         8.331984   1.506523   -1.300881 H        1 UNL1     0.0615
     65 H         8.256966   4.623644   -1.490061 H        1 UNL1     0.0622
     66 H         -1.43688   5.326545   0.515058 H        1 UNL1     0.0645
     67 H         -1.86731   3.627162   -0.679528 H        1 UNL1     0.0362
     68 H         -2.535615   2.493311   1.076525 H        1 UNL1     0.0741
     69 H         -1.182765   0.517919   2.214073 H        1 UNL1     0.0359
     70 H         0.925977   0.727998   2.927224 H        1 UNL1     0.0600
     71 H         1.808946   -0.400821   1.299083 H        1 UNL1     0.0348
     72 H         3.363051   1.474357   1.276523 H        1 UNL1     0.0602
     73 H         0.748217   5.410313   -0.456172 H        1 UNL1     0.0628
     74 H         1.544994   5.441149   2.514488 H        1 UNL1     0.1022
     75 H         10.909896   2.271096   -3.525681 H        1 UNL1     0.0279
     76 H         10.77343   3.484784   -4.734663 H        1 UNL1     0.0279
     77 H         11.888346   3.664454   -3.320458 H        1 UNL1     0.0279
     78 H         9.023456   4.820588   -5.082616 H        1 UNL1     0.1553
     79 H         7.750255   3.34638   -4.719445 H        1 UNL1     0.1484
     80 H         4.001464   2.735446   -4.832678 H        1 UNL1     0.0317
     81 H         4.729902   4.264364   -5.303544 H        1 UNL1     0.0317
     82 H         6.637323   3.078131   -6.420819 H        1 UNL1     0.0428
     83 H         5.078348   2.598319   -7.05413 H        1 UNL1     0.0428
     84 H         6.881156   -0.032782   -4.238045 H        1 UNL1     0.0428
     85 H         7.785272   1.379832   -4.65783 H        1 UNL1     0.0428
     86 H         6.506595   1.450597   -2.516609 H        1 UNL1     0.0317
     87 H         5.006141   1.219705   -3.289704 H        1 UNL1     0.0317
     88 H         7.215421   0.891578   -7.426379 H        1 UNL1     0.0429
     89 H         6.860785   -0.596182   -6.544882 H        1 UNL1     0.0429
     90 H         4.313702   0.286957   -7.353007 H        1 UNL1     0.0308
     91 H         6.300099   0.894802   -9.620066 H        1 UNL1     0.0233
     92 H         4.52784   0.815555   -9.788335 H        1 UNL1     0.0233
     93 H         5.267161   2.078463   -8.82757 H        1 UNL1     0.0233
     94 H         4.568934   -1.50808   -9.132766 H        1 UNL1     0.0233
     95 H         6.231346   -1.700482   -8.555104 H        1 UNL1     0.0233
     96 H         4.867686   -1.998379   -7.452526 H        1 UNL1     0.0233
     97 H         4.081461   10.531554   -0.168445 H        1 UNL1     0.0280
     98 H         5.707333   11.130882   -0.354276 H        1 UNL1     0.0280
     99 H         4.58455   11.165529   -1.746357 H        1 UNL1     0.0280
     100 H         6.646593   10.74632   -3.032833 H        1 UNL1     0.2922
     101 H         4.711437   0.908443   2.407859 H        1 UNL1     0.0236
     102 H         6.037106   2.13544   2.463921 H        1 UNL1     0.0236
     103 H         6.321917   0.522484   1.887075 H        1 UNL1     0.0236
     104 H         4.253251   -0.575166   1.280782 H        1 UNL1     0.2098
     105 H         0.700458   1.282883   -0.935071 H        1 UNL1     0.0234
     106 H         1.285468   -0.402806   -1.020599 H        1 UNL1     0.0234
     107 H         0.0   -0.0   0.0 H        1 UNL1     0.0234
     108 H         1.25668   3.247099   1.712537 H        1 UNL1     0.2098
     109 H         1.069059   3.062279   -0.859723 H        1 UNL1     0.0234
     110 H         -0.188289   2.325358   -1.903191 H        1 UNL1     0.0234
     111 H         0.046386   4.038157   -1.89353 H        1 UNL1     0.0234
     112 H         -3.503282   -1.563423   1.473363 H        1 UNL1     0.0342
     113 H         -3.166018   0.074176   2.138765 H        1 UNL1     0.0342
     114 H         -4.381636   -0.144217   0.876803 H        1 UNL1     0.0342
     115 H         -2.640273   1.957543   3.319779 H        1 UNL1     0.0234
     116 H         -1.133218   1.910121   4.240279 H        1 UNL1     0.0234
     117 H         -1.599127   3.300207   3.238164 H        1 UNL1     0.0234
     118 H         0.92003   7.680825   -0.781984 H        1 UNL1     0.0309
     119 H         2.182607   7.791866   -2.04754 H        1 UNL1     0.0309
     120 H         1.435185   6.266846   -1.625837 H        1 UNL1     0.0309
     121 H         -0.278271   6.261516   2.842463 H        1 UNL1     0.0524
     122 H         -2.016609   6.078828   2.574759 H        1 UNL1     0.0524
     123 H         -1.261346   5.328259   4.003033 H        1 UNL1     0.0524
@<TRIPOS>BOND
     1     1     2    1
     2     1    42    1
     3     2     3    2
     4     3     4    1
     5     4     5    2
     6     5     7    1
     7     6    75    1
     8     6    76    1
     9     6    77    1
    10     7     9   am
    11     9    10    1
    12    10    11    2
    13    10    43    1
    14    11    14    1
    15    11    15    1
    16    12    13   ar
    17    12    27   ar
    18    12    43    1
    19    13    14    1
    20    13    30   ar
    21    14    17    2
    22    15    16    1
    23    16    17    1
    24    16    18    1
    25    16    22    1
    26    18    19    1
    27    19    20    1
    28    20    21    1
    29    21    22    1
    30    23    24    1
    31    23    88    1
    32    23    89    1
    33    24    25    1
    34    24    26    1
    35    24    90    1
    36    25    91    1
    37    25    92    1
    38    25    93    1
    39    26    94    1
    40    26    95    1
    41    26    96    1
    42    27    28   ar
    43    28    29   ar
    44    29    30   ar
    45    29    31    1
    46    30    33    1
    47    31    32    1
    48    32    33    1
    49    32    35    1
    50    34    97    1
    51    34    98    1
    52    34    99    1
    53    35    61    1
    54    36    37    1
    55    36    60    1
    56    37    38    1
    57    38    39    1
    58    39    40    1
    59    40    41    1
    60    41    42    1
    61    45   100    1
    62    47   101    1
    63    47   102    1
    64    47   103    1
    65    48   104    1
    66    49   105    1
    67    49   106    1
    68    49   107    1
    69    50   108    1
    70    51    59    1
    71    52   109    1
    72    52   110    1
    73    52   111    1
    74    53    54    1
    75    54    55    2
    76    54    56    1
    77    56   112    1
    78    56   113    1
    79    56   114    1
    80    57   115    1
    81    57   116    1
    82    57   117    1
    83    58   118    1
    84    58   119    1
    85    58   120    1
    86    59   121    1
    87    59   122    1
    88    59   123    1
    89    60    61    2
    90     1    47    1
    91     1    62    1
    92     2    63    1
    93     3    64    1
    94     4    65    1
    95     5     6    1
    96     7     8    2
    97     9    78    1
    98    15    79    1
    99    18    80    1
   100    18    81    1
   101    19    82    1
   102    19    83    1
   103    20    23    1
   104    21    84    1
   105    21    85    1
   106    22    86    1
   107    22    87    1
   108    27    45    1
   109    28    34    1
   110    32    58    1
   111    33    46    2
   112    36    51    1
   113    36    66    1
   114    37    52    1
   115    37    67    1
   116    38    53    1
   117    38    68    1
   118    42    48    1
   119    42    72    1
   120    43    44    2
   121    60    73    1
   122    61    74    1
   123    39    69    1
   124    39    57    1
   125    40    70    1
   126    40    50    1
   127    41    71    1
   128    41    49    1
