@<TRIPOS>MOLECULE
*****
 123 128 0 0 0
SMALL
GASTEIGER

@<TRIPOS>ATOM
     1 C         -2.526235   3.72492   1.745966 C.3        1 UNL1     0.0009
     2 C         -3.057968   5.354664   1.04011 C.2        1 UNL1     -0.0787
     3 C         -3.006608   6.801523   1.043037 C.2        1 UNL1     -0.0649
     4 C         -3.715723   7.870167   -0.062184 C.2        1 UNL1     -0.0542
     5 C         -3.687511   9.185954   -0.586575 C.2        1 UNL1     0.0115
     6 C         -3.085535   10.604477   -0.389748 C.3        1 UNL1     -0.0348
     7 C         -4.403878   9.477105   -1.993358 C.2        1 UNL1     0.2441
     8 O         -5.498116   10.016536   -2.083826 O.2        1 UNL1     -0.2702
     9 N         -3.579591   9.310052   -3.119766 N.am        1 UNL1     -0.2772
     10 C         -3.619678   8.005298   -3.554889 C.2        1 UNL1     0.1049
     11 C         -2.823699   7.158029   -2.928173 C.2        1 UNL1     0.0801
     12 C         -5.200382   6.154095   -4.130873 C.ar        1 UNL1     0.0753
     13 C         -4.417578   5.322701   -3.267965 C.ar        1 UNL1     0.0305
     14 C         -3.127811   5.765015   -2.742692 C.2        1 UNL1     0.0924
     15 N         -1.818742   7.392639   -2.067041 N.pl3        1 UNL1     -0.3170
     16 C         -1.160165   6.139778   -1.808448 C.3        1 UNL1     0.1275
     17 N         -2.232252   5.098723   -2.019534 N.2        1 UNL1     -0.2557
     18 C         -0.138784   5.927603   -2.92176 C.3        1 UNL1     0.0016
     19 C         0.791848   7.129176   -2.963436 C.3        1 UNL1     0.0026
     20 N         1.446874   7.258624   -1.669136 N.3        1 UNL1     -0.3018
     21 C         0.542691   7.40537   -0.526644 C.3        1 UNL1     0.0026
     22 C         -0.379855   6.185467   -0.501323 C.3        1 UNL1     0.0016
     23 C         2.566268   8.178963   -1.693138 C.3        1 UNL1     0.0012
     24 C         2.080504   9.623218   -1.493348 C.3        1 UNL1     -0.0339
     25 C         0.658806   9.819738   -2.044903 C.3        1 UNL1     -0.0615
     26 C         2.168259   10.003848   -0.025629 C.3        1 UNL1     -0.0615
     27 C         -6.368553   5.681124   -4.723993 C.ar        1 UNL1     0.1347
     28 C         -6.831355   4.387517   -4.561373 C.ar        1 UNL1     0.0342
     29 C         -6.071093   3.60229   -3.668858 C.ar        1 UNL1     0.1435
     30 C         -4.918688   4.074091   -3.039105 C.ar        1 UNL1     0.0774
     31 O         -6.329631   2.288401   -3.490358 O.3        1 UNL1     -0.4436
     32 C         -5.121335   1.754055   -2.928781 C.3        1 UNL1     0.3143
     33 C         -4.424062   2.93801   -2.289819 C.2        1 UNL1     0.2504
     34 C         -7.927795   3.736695   -5.357835 C.3        1 UNL1     -0.0327
     35 O         -5.499905   0.869842   -1.866659 O.2        1 UNL1     -0.4528
     36 C         -2.792734   -1.786177   -1.708935 C.3        1 UNL1     0.0854
     37 C         -1.238754   -1.613827   -1.501651 C.3        1 UNL1     0.0236
     38 C         -0.623692   -2.447184   -0.277331 C.3        1 UNL1     0.1131
     39 C         -1.289231   -2.346215   1.154148 C.3        1 UNL1     0.0200
     40 C         -1.766315   -0.867796   1.761689 C.3        1 UNL1     0.0661
     41 C         -0.818855   0.538405   1.811959 C.3        1 UNL1     0.0091
     42 C         -1.301157   2.303576   1.681732 C.3        1 UNL1     0.0661
     43 C         -4.679536   7.507816   -4.44459 C.2        1 UNL1     0.2131
     44 O         -5.011324   8.145534   -5.427428 O.2        1 UNL1     -0.2851
     45 O         -7.09616   6.568918   -5.513833 O.3        1 UNL1     -0.5056
     46 O         -3.651463   2.94436   -1.357668 O.2        1 UNL1     -0.2836
     47 C         -3.238248   3.46603   3.100955 C.3        1 UNL1     -0.0566
     48 O         -0.494987   2.72813   2.851757 O.3        1 UNL1     -0.3909
     49 C         0.389742   0.344535   0.923589 C.3        1 UNL1     -0.0577
     50 O         -3.077683   -0.552   1.339419 O.3        1 UNL1     -0.3910
     51 O         -3.472937   -2.501346   -0.702313 O.3        1 UNL1     -0.3753
     52 C         -0.763723   -0.16346   -1.841838 C.3        1 UNL1     -0.0564
     53 O         0.873173   -2.549617   -0.312392 O.3        1 UNL1     -0.4608
     54 C         1.735562   -1.88055   0.516199 C.2        1 UNL1     0.3042
     55 O         1.799454   -0.666338   0.704468 O.2        1 UNL1     -0.2512
     56 C         2.643752   -2.786929   1.297468 C.3        1 UNL1     0.0332
     57 C         -2.302124   -3.575081   1.302848 C.3        1 UNL1     -0.0567
     58 C         -4.268834   1.255806   -4.118957 C.3        1 UNL1     0.0210
     59 C         -4.681206   -1.893713   -0.247635 C.3        1 UNL1     0.0372
     60 C         -3.543869   -0.518206   -1.916795 C.2        1 UNL1     -0.0208
     61 C         -4.695112   -0.099116   -1.389777 C.2        1 UNL1     0.0882
     62 H         -3.122844   3.219067   0.977277 H        1 UNL1     0.0365
     63 H         -3.78547   5.026154   0.294932 H        1 UNL1     0.0576
     64 H         -2.33385   7.349078   1.70688 H        1 UNL1     0.0615
     65 H         -4.419402   7.243038   -0.616283 H        1 UNL1     0.0622
     66 H         -2.885138   -2.348658   -2.648682 H        1 UNL1     0.0645
     67 H         -0.793462   -2.134472   -2.367216 H        1 UNL1     0.0362
     68 H         -0.835242   -3.469534   -0.625999 H        1 UNL1     0.0741
     69 H         -0.577494   -2.688002   1.893756 H        1 UNL1     0.0359
     70 H         -1.875434   -1.127704   2.832016 H        1 UNL1     0.0600
     71 H         -0.36799   0.431825   2.818099 H        1 UNL1     0.0348
     72 H         -2.21739   1.75787   1.95013 H        1 UNL1     0.0602
     73 H         -3.085558   0.0351   -2.698493 H        1 UNL1     0.0628
     74 H         -5.197913   -0.576461   -0.548011 H        1 UNL1     0.1022
     75 H         -3.892965   11.347824   -0.183526 H        1 UNL1     0.0279
     76 H         -2.422618   10.7362   0.46246 H        1 UNL1     0.0279
     77 H         -2.646297   11.011796   -1.31217 H        1 UNL1     0.0279
     78 H         -2.615078   9.520872   -2.872084 H        1 UNL1     0.1553
     79 H         -1.355666   8.278544   -1.979488 H        1 UNL1     0.1484
     80 H         0.413298   4.999922   -2.72842 H        1 UNL1     0.0317
     81 H         -0.635604   5.800775   -3.889611 H        1 UNL1     0.0317
     82 H         0.25438   8.051395   -3.229051 H        1 UNL1     0.0428
     83 H         1.510818   6.957953   -3.765193 H        1 UNL1     0.0428
     84 H         1.05597   7.420307   0.439862 H        1 UNL1     0.0428
     85 H         -0.000363   8.360146   -0.555118 H        1 UNL1     0.0428
     86 H         -0.933281   6.259972   0.416368 H        1 UNL1     0.0317
     87 H         0.211342   5.271291   -0.36766 H        1 UNL1     0.0317
     88 H         3.239791   7.919189   -0.865987 H        1 UNL1     0.0429
     89 H         3.143823   8.080258   -2.621288 H        1 UNL1     0.0429
     90 H         2.757147   10.30597   -2.020812 H        1 UNL1     0.0308
     91 H         0.021561   8.959931   -1.817409 H        1 UNL1     0.0233
     92 H         0.204731   10.722513   -1.629666 H        1 UNL1     0.0233
     93 H         0.647135   9.944934   -3.134409 H        1 UNL1     0.0233
     94 H         2.495942   11.044118   0.075848 H        1 UNL1     0.0233
     95 H         1.184527   9.912999   0.44339 H        1 UNL1     0.0233
     96 H         2.8754   9.364908   0.510725 H        1 UNL1     0.0233
     97 H         -8.555122   4.46704   -5.860116 H        1 UNL1     0.0280
     98 H         -7.533919   3.084547   -6.148291 H        1 UNL1     0.0280
     99 H         -8.564786   3.136856   -4.687365 H        1 UNL1     0.0280
     100 H         -8.01225   6.618993   -5.304324 H        1 UNL1     0.2922
     101 H         -3.1319   4.338825   3.74483 H        1 UNL1     0.0236
     102 H         -2.905527   2.552332   3.592317 H        1 UNL1     0.0236
     103 H         -4.326937   3.339137   2.979103 H        1 UNL1     0.0236
     104 H         -1.097561   2.789045   3.618676 H        1 UNL1     0.2098
     105 H         0.954033   1.252996   0.728431 H        1 UNL1     0.0234
     106 H         1.059739   -0.456855   1.234722 H        1 UNL1     0.0234
     107 H         0.0   -0.0   0.0 H        1 UNL1     0.0234
     108 H         -3.648932   -0.566768   2.131395 H        1 UNL1     0.2098
     109 H         0.331592   -0.082799   -1.880451 H        1 UNL1     0.0234
     110 H         -1.192609   0.222656   -2.772813 H        1 UNL1     0.0234
     111 H         -1.088205   0.557836   -1.080005 H        1 UNL1     0.0234
     112 H         3.523983   -2.231159   1.634598 H        1 UNL1     0.0342
     113 H         2.131924   -3.254844   2.13707 H        1 UNL1     0.0342
     114 H         2.987125   -3.588081   0.628576 H        1 UNL1     0.0342
     115 H         -1.971408   -4.449144   0.725067 H        1 UNL1     0.0234
     116 H         -2.455716   -3.901603   2.333306 H        1 UNL1     0.0234
     117 H         -3.292553   -3.38555   0.854441 H        1 UNL1     0.0234
     118 H         -4.143913   2.032719   -4.893429 H        1 UNL1     0.0309
     119 H         -3.282607   0.889033   -3.817234 H        1 UNL1     0.0309
     120 H         -4.745542   0.432334   -4.661866 H        1 UNL1     0.0309
     121 H         -4.825485   -0.977943   -0.820266 H        1 UNL1     0.0524
     122 H         -5.562053   -2.534638   -0.418986 H        1 UNL1     0.0524
     123 H         -4.611678   -1.666002   0.812275 H        1 UNL1     0.0524
@<TRIPOS>BOND
     1     1     2    1
     2     1    42    1
     3     2     3    2
     4     3     4    1
     5     4     5    2
     6     5     7    1
     7     6    75    1
     8     6    76    1
     9     6    77    1
    10     7     9   am
    11     9    10    1
    12    10    11    2
    13    10    43    1
    14    11    14    1
    15    11    15    1
    16    12    13   ar
    17    12    27   ar
    18    12    43    1
    19    13    14    1
    20    13    30   ar
    21    14    17    2
    22    15    16    1
    23    16    17    1
    24    16    18    1
    25    16    22    1
    26    18    19    1
    27    19    20    1
    28    20    21    1
    29    21    22    1
    30    23    24    1
    31    23    88    1
    32    23    89    1
    33    24    25    1
    34    24    26    1
    35    24    90    1
    36    25    91    1
    37    25    92    1
    38    25    93    1
    39    26    94    1
    40    26    95    1
    41    26    96    1
    42    27    28   ar
    43    28    29   ar
    44    29    30   ar
    45    29    31    1
    46    30    33    1
    47    31    32    1
    48    32    33    1
    49    32    35    1
    50    34    97    1
    51    34    98    1
    52    34    99    1
    53    35    61    1
    54    36    37    1
    55    36    60    1
    56    37    38    1
    57    38    39    1
    58    39    40    1
    59    40    41    1
    60    41    42    1
    61    45   100    1
    62    47   101    1
    63    47   102    1
    64    47   103    1
    65    48   104    1
    66    49   105    1
    67    49   106    1
    68    49   107    1
    69    50   108    1
    70    51    59    1
    71    52   109    1
    72    52   110    1
    73    52   111    1
    74    53    54    1
    75    54    55    2
    76    54    56    1
    77    56   112    1
    78    56   113    1
    79    56   114    1
    80    57   115    1
    81    57   116    1
    82    57   117    1
    83    58   118    1
    84    58   119    1
    85    58   120    1
    86    59   121    1
    87    59   122    1
    88    59   123    1
    89    60    61    2
    90     1    47    1
    91     1    62    1
    92     2    63    1
    93     3    64    1
    94     4    65    1
    95     5     6    1
    96     7     8    2
    97     9    78    1
    98    15    79    1
    99    18    80    1
   100    18    81    1
   101    19    82    1
   102    19    83    1
   103    20    23    1
   104    21    84    1
   105    21    85    1
   106    22    86    1
   107    22    87    1
   108    27    45    1
   109    28    34    1
   110    32    58    1
   111    33    46    2
   112    36    51    1
   113    36    66    1
   114    37    52    1
   115    37    67    1
   116    38    53    1
   117    38    68    1
   118    42    48    1
   119    42    72    1
   120    43    44    2
   121    60    73    1
   122    61    74    1
   123    39    69    1
   124    39    57    1
   125    40    70    1
   126    40    50    1
   127    41    71    1
   128    41    49    1
