@<TRIPOS>MOLECULE
*****
 123 128 0 0 0
SMALL
GASTEIGER

@<TRIPOS>ATOM
     1 C         -2.968458   3.790688   0.343523 C.3        1 UNL1     0.0009
     2 C         -4.163734   4.590921   -0.826083 C.2        1 UNL1     -0.0787
     3 C         -4.572625   5.731108   -1.619069 C.2        1 UNL1     -0.0649
     4 C         -5.86464   5.831331   -2.708569 C.2        1 UNL1     -0.0542
     5 C         -6.402364   6.542292   -3.809689 C.2        1 UNL1     0.0115
     6 C         -6.248698   7.82402   -4.673913 C.3        1 UNL1     -0.0348
     7 C         -7.541103   5.846787   -4.702177 C.2        1 UNL1     0.2441
     8 O         -8.727984   6.125755   -4.602095 O.2        1 UNL1     -0.2702
     9 N         -7.060469   5.088885   -5.784179 N.am        1 UNL1     -0.2772
     10 C         -6.808462   3.794955   -5.389772 C.2        1 UNL1     0.1049
     11 C         -5.642955   3.58072   -4.806746 C.2        1 UNL1     0.0801
     12 C         -7.81952   1.861722   -4.165963 C.ar        1 UNL1     0.0753
     13 C         -6.604126   1.804266   -3.412222 C.ar        1 UNL1     0.0305
     14 C         -5.426685   2.578346   -3.798852 C.2        1 UNL1     0.0924
     15 N         -4.562978   4.37576   -4.716805 N.pl3        1 UNL1     -0.3170
     16 C         -3.498192   3.605879   -4.130488 C.3        1 UNL1     0.1275
     17 N         -4.200758   2.573383   -3.283095 N.2        1 UNL1     -0.2557
     18 C         -2.821093   2.836557   -5.260701 C.3        1 UNL1     0.0016
     19 C         -2.368792   3.827889   -6.321019 C.3        1 UNL1     0.0026
     20 N         -1.450071   4.778928   -5.710688 N.3        1 UNL1     -0.3018
     21 C         -1.992122   5.52437   -4.572766 C.3        1 UNL1     0.0026
     22 C         -2.435946   4.509253   -3.518037 C.3        1 UNL1     0.0016
     23 C         -0.733103   5.575889   -6.686113 C.3        1 UNL1     0.0012
     24 C         -0.382945   4.729809   -7.920332 C.3        1 UNL1     -0.0339
     25 C         -1.414974   4.920397   -9.044009 C.3        1 UNL1     -0.0615
     26 C         1.023691   5.054487   -8.392284 C.3        1 UNL1     -0.0615
     27 C         -8.896347   1.031646   -3.863415 C.ar        1 UNL1     0.1347
     28 C         -8.861636   0.080334   -2.859497 C.ar        1 UNL1     0.0342
     29 C         -7.672842   0.075479   -2.099293 C.ar        1 UNL1     0.1435
     30 C         -6.599564   0.925917   -2.367714 C.ar        1 UNL1     0.0774
     31 O         -7.442217   -0.865488   -1.157805 O.3        1 UNL1     -0.4436
     32 C         -6.02033   -0.841268   -0.961531 C.3        1 UNL1     0.3143
     33 C         -5.581278   0.536429   -1.414741 C.2        1 UNL1     0.2504
     34 C         -9.874937   -1.008556   -2.641232 C.3        1 UNL1     -0.0327
     35 O         -5.783913   -0.911131   0.450021 O.2        1 UNL1     -0.4528
     36 C         -2.449545   -2.677929   0.860508 C.3        1 UNL1     0.0854
     37 C         -1.037616   -2.289931   0.274474 C.3        1 UNL1     0.0236
     38 C         0.128708   -2.139969   1.364861 C.3        1 UNL1     0.1131
     39 C         -0.100975   -1.233278   2.640567 C.3        1 UNL1     0.0200
     40 C         -0.827426   0.261237   2.495202 C.3        1 UNL1     0.0661
     41 C         -0.398393   1.470941   1.386078 C.3        1 UNL1     0.0091
     42 C         -1.428734   2.735673   0.546879 C.3        1 UNL1     0.0661
     43 C         -7.86336   2.771826   -5.337308 C.2        1 UNL1     0.2131
     44 O         -8.643073   2.639987   -6.263269 O.2        1 UNL1     -0.2851
     45 O         -10.058853   1.182745   -4.616533 O.3        1 UNL1     -0.5056
     46 O         -4.619705   1.177513   -1.053848 O.2        1 UNL1     -0.2836
     47 C         -3.148404   4.36444   1.774749 C.3        1 UNL1     -0.0566
     48 O         -0.501321   3.853741   0.845117 O.3        1 UNL1     -0.3909
     49 C         0.506163   0.869534   0.333661 C.3        1 UNL1     -0.0577
     50 O         -2.234347   0.143132   2.561143 O.3        1 UNL1     -0.3910
     51 O         -2.555364   -2.673756   2.266288 O.3        1 UNL1     -0.3753
     52 C         -1.16092   -1.32405   -0.948972 C.3        1 UNL1     -0.0564
     53 O         1.506982   -2.121173   0.771282 O.3        1 UNL1     -0.4608
     54 C         2.552405   -1.352957   1.212717 C.2        1 UNL1     0.3042
     55 O         2.503619   -0.200883   1.641882 O.2        1 UNL1     -0.2512
     56 C         3.872715   -2.069425   1.199702 C.3        1 UNL1     0.0332
     57 C         -0.588901   -2.186756   3.828415 C.3        1 UNL1     -0.0567
     58 C         -5.427744   -1.895786   -1.925047 C.3        1 UNL1     0.0210
     59 C         -2.654623   -3.965678   2.863741 C.3        1 UNL1     0.0372
     60 C         -3.588583   -1.872434   0.341922 C.2        1 UNL1     -0.0208
     61 C         -4.614444   -1.312287   0.984252 C.2        1 UNL1     0.0882
     62 H         -3.566857   2.872839   0.296798 H        1 UNL1     0.0365
     63 H         -4.929969   3.816016   -0.895917 H        1 UNL1     0.0576
     64 H         -3.948063   6.623247   -1.703437 H        1 UNL1     0.0615
     65 H         -6.461069   4.941874   -2.488066 H        1 UNL1     0.0622
     66 H         -2.621766   -3.704821   0.508543 H        1 UNL1     0.0645
     67 H         -0.714983   -3.195011   -0.26894 H        1 UNL1     0.0362
     68 H         0.160811   -3.173117   1.743144 H        1 UNL1     0.0741
     69 H         0.86077   -0.988545   3.071334 H        1 UNL1     0.0359
     70 H         -0.541478   0.707565   3.466842 H        1 UNL1     0.0600
     71 H         0.328291   2.043103   1.995601 H        1 UNL1     0.0348
     72 H         -2.01066   2.399227   1.417213 H        1 UNL1     0.0602
     73 H         -3.56908   -1.882927   -0.719567 H        1 UNL1     0.0628
     74 H         -4.681206   -1.208854   2.067802 H        1 UNL1     0.1022
     75 H         -5.511839   8.523406   -4.210305 H        1 UNL1     0.0279
     76 H         -5.845428   7.688686   -5.674976 H        1 UNL1     0.0279
     77 H         -7.158288   8.442293   -4.683123 H        1 UNL1     0.0279
     78 H         -6.183192   5.484386   -6.115905 H        1 UNL1     0.1553
     79 H         -4.398097   5.161484   -5.31879 H        1 UNL1     0.1484
     80 H         -1.973775   2.272841   -4.85199 H        1 UNL1     0.0317
     81 H         -3.50497   2.101283   -5.69812 H        1 UNL1     0.0317
     82 H         -3.2216   4.34401   -6.786046 H        1 UNL1     0.0428
     83 H         -1.890386   3.258077   -7.118196 H        1 UNL1     0.0428
     84 H         -1.258434   6.172427   -4.083342 H        1 UNL1     0.0428
     85 H         -2.793161   6.211543   -4.878456 H        1 UNL1     0.0428
     86 H         -2.701099   5.087957   -2.652714 H        1 UNL1     0.0317
     87 H         -1.57434   3.922542   -3.176713 H        1 UNL1     0.0317
     88 H         -1.386931   6.399639   -7.001134 H        1 UNL1     0.0429
     89 H         0.165928   6.028328   -6.248144 H        1 UNL1     0.0429
     90 H         -0.366825   3.670723   -7.636978 H        1 UNL1     0.0308
     91 H         -1.133267   4.361899   -9.941686 H        1 UNL1     0.0233
     92 H         -2.406141   4.597475   -8.717026 H        1 UNL1     0.0233
     93 H         -1.518494   5.970723   -9.342228 H        1 UNL1     0.0233
     94 H         1.300646   6.068631   -8.084643 H        1 UNL1     0.0233
     95 H         1.738301   4.359011   -7.943276 H        1 UNL1     0.0233
     96 H         1.104286   4.989485   -9.480974 H        1 UNL1     0.0233
     97 H         -9.568873   -1.699624   -1.861501 H        1 UNL1     0.0280
     98 H         -10.848211   -0.610862   -2.325267 H        1 UNL1     0.0280
     99 H         -10.010644   -1.5789   -3.574713 H        1 UNL1     0.0280
     100 H         -10.21446   2.058078   -4.925081 H        1 UNL1     0.2922
     101 H         -2.62416   3.733646   2.492331 H        1 UNL1     0.0236
     102 H         -4.192257   4.51462   2.048244 H        1 UNL1     0.0236
     103 H         -2.683493   5.358491   1.883903 H        1 UNL1     0.0236
     104 H         0.301349   3.471051   1.250382 H        1 UNL1     0.2098
     105 H         0.676381   1.507449   -0.529994 H        1 UNL1     0.0234
     106 H         1.453396   0.485991   0.71257 H        1 UNL1     0.0234
     107 H         0.0   -0.0   0.0 H        1 UNL1     0.0234
     108 H         -2.560583   0.046576   1.645711 H        1 UNL1     0.2098
     109 H         -1.723808   -1.773679   -1.778853 H        1 UNL1     0.0234
     110 H         -1.601461   -0.355283   -0.689824 H        1 UNL1     0.0234
     111 H         -0.176599   -1.066829   -1.362366 H        1 UNL1     0.0234
     112 H         4.663289   -1.399238   1.550682 H        1 UNL1     0.0342
     113 H         3.847374   -2.985503   1.787922 H        1 UNL1     0.0342
     114 H         4.102427   -2.346633   0.16165 H        1 UNL1     0.0342
     115 H         -0.21655   -1.846398   4.804478 H        1 UNL1     0.0234
     116 H         -1.673969   -2.280331   3.905358 H        1 UNL1     0.0234
     117 H         -0.161981   -3.203295   3.780151 H        1 UNL1     0.0234
     118 H         -5.113084   -2.811585   -1.394664 H        1 UNL1     0.0309
     119 H         -6.110386   -2.168317   -2.736176 H        1 UNL1     0.0309
     120 H         -4.505431   -1.553546   -2.407039 H        1 UNL1     0.0309
     121 H         -1.924026   -4.012696   3.670818 H        1 UNL1     0.0524
     122 H         -3.648804   -4.147323   3.304929 H        1 UNL1     0.0524
     123 H         -2.449501   -4.737226   2.127037 H        1 UNL1     0.0524
@<TRIPOS>BOND
     1     1     2    1
     2     1    42    1
     3     2     3    2
     4     3     4    1
     5     4     5    2
     6     5     7    1
     7     6    75    1
     8     6    76    1
     9     6    77    1
    10     7     9   am
    11     9    10    1
    12    10    11    2
    13    10    43    1
    14    11    14    1
    15    11    15    1
    16    12    13   ar
    17    12    27   ar
    18    12    43    1
    19    13    14    1
    20    13    30   ar
    21    14    17    2
    22    15    16    1
    23    16    17    1
    24    16    18    1
    25    16    22    1
    26    18    19    1
    27    19    20    1
    28    20    21    1
    29    21    22    1
    30    23    24    1
    31    23    88    1
    32    23    89    1
    33    24    25    1
    34    24    26    1
    35    24    90    1
    36    25    91    1
    37    25    92    1
    38    25    93    1
    39    26    94    1
    40    26    95    1
    41    26    96    1
    42    27    28   ar
    43    28    29   ar
    44    29    30   ar
    45    29    31    1
    46    30    33    1
    47    31    32    1
    48    32    33    1
    49    32    35    1
    50    34    97    1
    51    34    98    1
    52    34    99    1
    53    35    61    1
    54    36    37    1
    55    36    60    1
    56    37    38    1
    57    38    39    1
    58    39    40    1
    59    40    41    1
    60    41    42    1
    61    45   100    1
    62    47   101    1
    63    47   102    1
    64    47   103    1
    65    48   104    1
    66    49   105    1
    67    49   106    1
    68    49   107    1
    69    50   108    1
    70    51    59    1
    71    52   109    1
    72    52   110    1
    73    52   111    1
    74    53    54    1
    75    54    55    2
    76    54    56    1
    77    56   112    1
    78    56   113    1
    79    56   114    1
    80    57   115    1
    81    57   116    1
    82    57   117    1
    83    58   118    1
    84    58   119    1
    85    58   120    1
    86    59   121    1
    87    59   122    1
    88    59   123    1
    89    60    61    2
    90     1    47    1
    91     1    62    1
    92     2    63    1
    93     3    64    1
    94     4    65    1
    95     5     6    1
    96     7     8    2
    97     9    78    1
    98    15    79    1
    99    18    80    1
   100    18    81    1
   101    19    82    1
   102    19    83    1
   103    20    23    1
   104    21    84    1
   105    21    85    1
   106    22    86    1
   107    22    87    1
   108    27    45    1
   109    28    34    1
   110    32    58    1
   111    33    46    2
   112    36    51    1
   113    36    66    1
   114    37    52    1
   115    37    67    1
   116    38    53    1
   117    38    68    1
   118    42    48    1
   119    42    72    1
   120    43    44    2
   121    60    73    1
   122    61    74    1
   123    39    69    1
   124    39    57    1
   125    40    70    1
   126    40    50    1
   127    41    71    1
   128    41    49    1
