@<TRIPOS>MOLECULE
*****
 123 128 0 0 0
SMALL
GASTEIGER

@<TRIPOS>ATOM
     1 C         4.074776   -0.302317   0.604761 C.3        1 UNL1     0.0009
     2 C         4.963944   -1.011912   2.068623 C.2        1 UNL1     -0.0787
     3 C         5.610293   -0.835893   3.352094 C.2        1 UNL1     -0.0649
     4 C         6.204628   -2.033464   4.390818 C.2        1 UNL1     -0.0542
     5 C         6.586673   -2.330321   5.722356 C.2        1 UNL1     0.0115
     6 C         6.873542   -1.706855   7.116027 C.3        1 UNL1     -0.0348
     7 C         6.692627   -3.866535   6.17602 C.2        1 UNL1     0.2441
     8 O         7.758869   -4.456431   6.284075 O.2        1 UNL1     -0.2702
     9 N         5.503874   -4.411748   6.69154 N.am        1 UNL1     -0.2772
     10 C         4.735574   -4.934315   5.676671 C.2        1 UNL1     0.1049
     11 C         3.978849   -4.075318   5.0181 C.2        1 UNL1     0.0801
     12 C         4.844597   -6.431441   3.675656 C.ar        1 UNL1     0.0753
     13 C         4.20424   -5.377204   2.949615 C.ar        1 UNL1     0.0305
     14 C         3.632695   -4.217132   3.629776 C.2        1 UNL1     0.0924
     15 N         3.670115   -2.79908   5.305203 N.pl3        1 UNL1     -0.3170
     16 C         2.674217   -2.365008   4.361793 C.3        1 UNL1     0.1275
     17 N         2.924691   -3.20623   3.134059 N.2        1 UNL1     -0.2557
     18 C         1.316713   -2.801401   4.904421 C.3        1 UNL1     0.0016
     19 C         1.146386   -2.231824   6.303764 C.3        1 UNL1     0.0026
     20 N         1.240148   -0.780216   6.232557 N.3        1 UNL1     -0.3018
     21 C         2.487969   -0.264877   5.665337 C.3        1 UNL1     0.0026
     22 C         2.636518   -0.845999   4.258168 C.3        1 UNL1     0.0016
     23 C         0.797665   -0.126228   7.447938 C.3        1 UNL1     0.0012
     24 C         0.780042   -1.121072   8.619148 C.3        1 UNL1     -0.0339
     25 C         1.725395   -0.677792   9.747805 C.3        1 UNL1     -0.0615
     26 C         -0.6409   -1.308892   9.12157 C.3        1 UNL1     -0.0615
     27 C         5.278992   -7.589107   3.034384 C.ar        1 UNL1     0.1347
     28 C         5.093424   -7.822587   1.68342 C.ar        1 UNL1     0.0342
     29 C         4.504769   -6.750233   0.980068 C.ar        1 UNL1     0.1435
     30 C         4.097347   -5.569777   1.602765 C.ar        1 UNL1     0.0774
     31 O         4.157813   -6.866287   -0.320378 O.3        1 UNL1     -0.4436
     32 C         3.202252   -5.816831   -0.535826 C.3        1 UNL1     0.3143
     33 C         3.488799   -4.792461   0.543419 C.2        1 UNL1     0.2504
     34 C         5.303075   -9.133666   0.978283 C.3        1 UNL1     -0.0327
     35 O         3.520797   -5.20159   -1.790122 O.2        1 UNL1     -0.4528
     36 C         0.229694   -3.932421   -3.192244 C.3        1 UNL1     0.0854
     37 C         -0.807359   -2.932528   -2.550171 C.3        1 UNL1     0.0236
     38 C         -1.167627   -1.658797   -3.455466 C.3        1 UNL1     0.1131
     39 C         -0.005881   -0.77898   -4.070721 C.3        1 UNL1     0.0200
     40 C         1.317733   -0.36084   -3.145713 C.3        1 UNL1     0.0661
     41 C         1.269624   0.316282   -1.591106 C.3        1 UNL1     0.0091
     42 C         2.424948   0.13465   -0.177728 C.3        1 UNL1     0.0661
     43 C         4.95051   -6.289978   5.149097 C.2        1 UNL1     0.2131
     44 O         5.099306   -7.231604   5.906685 O.2        1 UNL1     -0.2851
     45 O         5.933754   -8.546957   3.805907 O.3        1 UNL1     -0.5056
     46 O         3.281869   -3.599705   0.524249 O.2        1 UNL1     -0.2836
     47 C         5.070261   0.451929   -0.317249 C.3        1 UNL1     -0.0566
     48 O         2.4893   1.589178   0.103914 O.3        1 UNL1     -0.3909
     49 C         -0.130477   0.169825   -1.03815 C.3        1 UNL1     -0.0577
     50 O         2.307943   -1.367737   -3.20373 O.3        1 UNL1     -0.3910
     51 O         0.839026   -3.503662   -4.389036 O.3        1 UNL1     -0.3753
     52 C         -0.631215   -2.827496   -1.000045 C.3        1 UNL1     -0.0564
     53 O         -2.391672   -0.922129   -2.995727 O.3        1 UNL1     -0.4608
     54 C         -2.504092   0.438718   -2.880019 C.2        1 UNL1     0.3042
     55 O         -2.778373   1.082086   -1.867751 O.2        1 UNL1     -0.2512
     56 C         -2.192475   1.178053   -4.150055 C.3        1 UNL1     0.0332
     57 C         0.260017   -1.303182   -5.558231 C.3        1 UNL1     -0.0567
     58 C         1.808195   -6.435147   -0.279267 C.3        1 UNL1     0.0210
     59 C         1.642768   -2.331193   -4.265829 C.3        1 UNL1     0.0372
     60 C         1.325716   -4.369934   -2.285338 C.2        1 UNL1     -0.0208
     61 C         2.637058   -4.477544   -2.50339 C.2        1 UNL1     0.0882
     62 H         3.977005   -1.315711   0.197103 H        1 UNL1     0.0365
     63 H         5.061463   -2.055278   1.761463 H        1 UNL1     0.0576
     64 H         5.624964   0.132266   3.857624 H        1 UNL1     0.0615
     65 H         6.222095   -2.932604   3.768946 H        1 UNL1     0.0622
     66 H         -0.357359   -4.835082   -3.412739 H        1 UNL1     0.0645
     67 H         -1.760646   -3.488934   -2.564872 H        1 UNL1     0.0362
     68 H         -1.633151   -2.1683   -4.312913 H        1 UNL1     0.0741
     69 H         -0.410826   0.183429   -4.353911 H        1 UNL1     0.0359
     70 H         1.726282   0.464581   -3.759578 H        1 UNL1     0.0600
     71 H         1.289654   1.393403   -1.848725 H        1 UNL1     0.0348
     72 H         2.989282   -0.168443   -1.071584 H        1 UNL1     0.0602
     73 H         0.905776   -4.739377   -1.382891 H        1 UNL1     0.0628
     74 H         3.15255   -4.072497   -3.374851 H        1 UNL1     0.1022
     75 H         5.924038   -1.572031   7.688127 H        1 UNL1     0.0279
     76 H         7.476024   -2.30167   7.798874 H        1 UNL1     0.0279
     77 H         7.23691   -0.67074   7.051752 H        1 UNL1     0.0279
     78 H         4.95907   -3.679575   7.142306 H        1 UNL1     0.1553
     79 H         3.766931   -2.394514   6.218377 H        1 UNL1     0.1484
     80 H         0.530103   -2.444968   4.228428 H        1 UNL1     0.0317
     81 H         1.237816   -3.893568   4.928876 H        1 UNL1     0.0317
     82 H         1.888895   -2.642571   7.003678 H        1 UNL1     0.0428
     83 H         0.172911   -2.55657   6.672459 H        1 UNL1     0.0428
     84 H         2.500569   0.82333   5.549332 H        1 UNL1     0.0428
     85 H         3.349253   -0.473945   6.314796 H        1 UNL1     0.0428
     86 H         3.48423   -0.346762   3.826733 H        1 UNL1     0.0317
     87 H         1.801045   -0.518547   3.62741 H        1 UNL1     0.0317
     88 H         1.508837   0.676707   7.682083 H        1 UNL1     0.0429
     89 H         -0.184984   0.343786   7.312802 H        1 UNL1     0.0429
     90 H         1.10307   -2.105171   8.259404 H        1 UNL1     0.0308
     91 H         1.396864   -1.065094   10.716911 H        1 UNL1     0.0233
     92 H         2.745407   -1.017268   9.553021 H        1 UNL1     0.0233
     93 H         1.779246   0.413477   9.843026 H        1 UNL1     0.0233
     94 H         -1.256544   -0.446253   8.84467 H        1 UNL1     0.0233
     95 H         -1.083638   -2.199123   8.666121 H        1 UNL1     0.0233
     96 H         -0.668367   -1.418123   10.209358 H        1 UNL1     0.0233
     97 H         6.114206   -9.707115   1.416978 H        1 UNL1     0.0280
     98 H         4.416168   -9.778523   1.031292 H        1 UNL1     0.0280
     99 H         5.544437   -8.948413   -0.081208 H        1 UNL1     0.0280
     100 H         6.317727   -8.215533   4.598589 H        1 UNL1     0.2922
     101 H         5.344082   1.403554   0.13782 H        1 UNL1     0.0236
     102 H         4.701885   0.57625   -1.335004 H        1 UNL1     0.0236
     103 H         6.024258   -0.090132   -0.427943 H        1 UNL1     0.0236
     104 H         3.133517   1.721432   0.826731 H        1 UNL1     0.2098
     105 H         -0.75414   1.052538   -1.155086 H        1 UNL1     0.0234
     106 H         -0.66403   -0.717494   -1.378612 H        1 UNL1     0.0234
     107 H         0.0   -0.0   0.0 H        1 UNL1     0.0234
     108 H         1.849505   -2.21727   -3.351701 H        1 UNL1     0.2098
     109 H         -1.352752   -2.134378   -0.54542 H        1 UNL1     0.0234
     110 H         -0.685932   -3.797359   -0.493966 H        1 UNL1     0.0234
     111 H         0.361257   -2.44229   -0.730671 H        1 UNL1     0.0234
     112 H         -1.80358   0.482374   -4.899814 H        1 UNL1     0.0342
     113 H         -3.056745   1.720036   -4.53102 H        1 UNL1     0.0342
     114 H         -1.406314   1.914616   -3.934206 H        1 UNL1     0.0342
     115 H         -0.531877   -1.98441   -5.898849 H        1 UNL1     0.0234
     116 H         0.349873   -0.507134   -6.300041 H        1 UNL1     0.0234
     117 H         1.149591   -1.950665   -5.644055 H        1 UNL1     0.0234
     118 H         1.626327   -6.616494   0.794532 H        1 UNL1     0.0309
     119 H         0.989502   -5.831913   -0.684301 H        1 UNL1     0.0309
     120 H         1.70112   -7.430066   -0.725112 H        1 UNL1     0.0309
     121 H         0.981361   -1.468577   -4.341915 H        1 UNL1     0.0524
     122 H         2.152151   -2.273849   -3.289469 H        1 UNL1     0.0524
     123 H         2.388783   -2.302282   -5.054955 H        1 UNL1     0.0524
@<TRIPOS>BOND
     1     1     2    1
     2     1    42    1
     3     2     3    2
     4     3     4    1
     5     4     5    2
     6     5     7    1
     7     6    75    1
     8     6    76    1
     9     6    77    1
    10     7     9   am
    11     9    10    1
    12    10    11    2
    13    10    43    1
    14    11    14    1
    15    11    15    1
    16    12    13   ar
    17    12    27   ar
    18    12    43    1
    19    13    14    1
    20    13    30   ar
    21    14    17    2
    22    15    16    1
    23    16    17    1
    24    16    18    1
    25    16    22    1
    26    18    19    1
    27    19    20    1
    28    20    21    1
    29    21    22    1
    30    23    24    1
    31    23    88    1
    32    23    89    1
    33    24    25    1
    34    24    26    1
    35    24    90    1
    36    25    91    1
    37    25    92    1
    38    25    93    1
    39    26    94    1
    40    26    95    1
    41    26    96    1
    42    27    28   ar
    43    28    29   ar
    44    29    30   ar
    45    29    31    1
    46    30    33    1
    47    31    32    1
    48    32    33    1
    49    32    35    1
    50    34    97    1
    51    34    98    1
    52    34    99    1
    53    35    61    1
    54    36    37    1
    55    36    60    1
    56    37    38    1
    57    38    39    1
    58    39    40    1
    59    40    41    1
    60    41    42    1
    61    45   100    1
    62    47   101    1
    63    47   102    1
    64    47   103    1
    65    48   104    1
    66    49   105    1
    67    49   106    1
    68    49   107    1
    69    50   108    1
    70    51    59    1
    71    52   109    1
    72    52   110    1
    73    52   111    1
    74    53    54    1
    75    54    55    2
    76    54    56    1
    77    56   112    1
    78    56   113    1
    79    56   114    1
    80    57   115    1
    81    57   116    1
    82    57   117    1
    83    58   118    1
    84    58   119    1
    85    58   120    1
    86    59   121    1
    87    59   122    1
    88    59   123    1
    89    60    61    2
    90     1    47    1
    91     1    62    1
    92     2    63    1
    93     3    64    1
    94     4    65    1
    95     5     6    1
    96     7     8    2
    97     9    78    1
    98    15    79    1
    99    18    80    1
   100    18    81    1
   101    19    82    1
   102    19    83    1
   103    20    23    1
   104    21    84    1
   105    21    85    1
   106    22    86    1
   107    22    87    1
   108    27    45    1
   109    28    34    1
   110    32    58    1
   111    33    46    2
   112    36    51    1
   113    36    66    1
   114    37    52    1
   115    37    67    1
   116    38    53    1
   117    38    68    1
   118    42    48    1
   119    42    72    1
   120    43    44    2
   121    60    73    1
   122    61    74    1
   123    39    69    1
   124    39    57    1
   125    40    70    1
   126    40    50    1
   127    41    71    1
   128    41    49    1
