@<TRIPOS>MOLECULE
*****
 123 128 0 0 0
SMALL
GASTEIGER

@<TRIPOS>ATOM
     1 C         5.164793   1.765696   0.454423 C.3        1 UNL1     0.0009
     2 C         6.594319   2.572201   -0.407577 C.2        1 UNL1     -0.0787
     3 C         7.872692   2.474784   -1.080122 C.2        1 UNL1     -0.0649
     4 C         8.742287   3.709111   -1.84602 C.2        1 UNL1     -0.0542
     5 C         9.756143   4.000582   -2.791652 C.2        1 UNL1     0.0115
     6 C         10.881231   3.374604   -3.660933 C.3        1 UNL1     -0.0348
     7 C         9.84377   5.481449   -3.405121 C.2        1 UNL1     0.2441
     8 O         10.6674   6.307088   -3.03569 O.2        1 UNL1     -0.2702
     9 N         9.08635   5.681165   -4.572416 N.am        1 UNL1     -0.2772
     10 C         7.804318   6.065537   -4.253082 C.2        1 UNL1     0.1049
     11 C         6.963003   5.092989   -3.952148 C.2        1 UNL1     0.0801
     12 C         6.509288   7.674598   -2.841999 C.ar        1 UNL1     0.0753
     13 C         5.75603   6.546475   -2.385325 C.ar        1 UNL1     0.0305
     14 C         5.87308   5.238315   -3.025689 C.2        1 UNL1     0.0924
     15 N         7.088557   3.763687   -4.106158 N.pl3        1 UNL1     -0.3170
     16 C         5.822229   3.16226   -3.782196 C.3        1 UNL1     0.1275
     17 N         5.188623   4.11993   -2.802841 N.2        1 UNL1     -0.2557
     18 C         4.962085   3.213382   -5.041259 C.3        1 UNL1     0.0016
     19 C         5.712546   2.526542   -6.171147 C.3        1 UNL1     0.0026
     20 N         5.988841   1.150913   -5.780846 N.3        1 UNL1     -0.3018
     21 C         6.759651   0.998106   -4.545179 C.3        1 UNL1     0.0026
     22 C         5.985264   1.691273   -3.422798 C.3        1 UNL1     0.0016
     23 C         6.429432   0.327823   -6.889469 C.3        1 UNL1     0.0012
     24 C         5.269179   0.070764   -7.863887 C.3        1 UNL1     -0.0339
     25 C         5.354708   0.98828   -9.094703 C.3        1 UNL1     -0.0615
     26 C         5.237194   -1.395006   -8.260466 C.3        1 UNL1     -0.0615
     27 C         6.304023   8.944041   -2.306743 C.ar        1 UNL1     0.1347
     28 C         5.349633   9.215025   -1.342503 C.ar        1 UNL1     0.0342
     29 C         4.653962   8.08059   -0.873181 C.ar        1 UNL1     0.1435
     30 C         4.874244   6.797005   -1.374285 C.ar        1 UNL1     0.0774
     31 O         3.61749   8.194897   -0.014307 O.3        1 UNL1     -0.4436
     32 C         2.898581   6.959409   -0.147018 C.3        1 UNL1     0.3143
     33 C         3.911714   5.966896   -0.680582 C.2        1 UNL1     0.2504
     34 C         4.901353   10.581754   -0.905242 C.3        1 UNL1     -0.0327
     35 O         2.546657   6.527424   1.17313 O.2        1 UNL1     -0.4528
     36 C         -0.692992   4.584254   0.803193 C.3        1 UNL1     0.0854
     37 C         -0.99973   3.318898   -0.086924 C.3        1 UNL1     0.0236
     38 C         -1.592176   2.059591   0.709882 C.3        1 UNL1     0.1131
     39 C         -0.857535   1.536421   2.009446 C.3        1 UNL1     0.0200
     40 C         0.804276   1.395811   2.041824 C.3        1 UNL1     0.0661
     41 C         1.75923   0.624633   0.870944 C.3        1 UNL1     0.0091
     42 C         3.462544   0.989609   0.29569 C.3        1 UNL1     0.0661
     43 C         7.453565   7.464722   -3.967411 C.2        1 UNL1     0.2131
     44 O         7.846782   8.360794   -4.692099 O.2        1 UNL1     -0.2851
     45 O         7.110691   9.979455   -2.774333 O.3        1 UNL1     -0.5056
     46 O         3.931916   4.763995   -0.544661 O.2        1 UNL1     -0.2836
     47 C         5.570529   1.343642   1.892209 C.3        1 UNL1     -0.0566
     48 O         3.915633   -0.419837   0.381071 O.3        1 UNL1     -0.3909
     49 C         0.91871   0.384242   -0.363249 C.3        1 UNL1     -0.0577
     50 O         1.403173   2.61709   2.425911 O.3        1 UNL1     -0.3910
     51 O         -0.808652   4.400309   2.19611 O.3        1 UNL1     -0.3753
     52 C         0.03864   3.156378   -1.244647 C.3        1 UNL1     -0.0564
     53 O         -2.196865   1.014965   -0.181988 O.3        1 UNL1     -0.4608
     54 C         -2.394414   -0.299054   0.153062 C.2        1 UNL1     0.3042
     55 O         -1.719307   -1.2677   -0.19305 O.2        1 UNL1     -0.2512
     56 C         -3.54532   -0.513169   1.094489 C.3        1 UNL1     0.0332
     57 C         -1.573335   2.208859   3.271838 C.3        1 UNL1     -0.0567
     58 C         1.81656   7.196681   -1.22612 C.3        1 UNL1     0.0210
     59 C         -1.121051   5.581639   2.932813 C.3        1 UNL1     0.0372
     60 C         0.632857   5.21612   0.562297 C.2        1 UNL1     -0.0208
     61 C         1.549444   5.65776   1.4246 C.2        1 UNL1     0.0882
     62 H         4.686539   2.748877   0.540101 H        1 UNL1     0.0365
     63 H         6.325635   3.625686   -0.305357 H        1 UNL1     0.0576
     64 H         8.331873   1.508288   -1.299548 H        1 UNL1     0.0615
     65 H         8.25454   4.62462   -1.500436 H        1 UNL1     0.0622
     66 H         -1.441537   5.327286   0.493952 H        1 UNL1     0.0645
     67 H         -1.869617   3.62311   -0.694634 H        1 UNL1     0.0362
     68 H         -2.538493   2.495294   1.065085 H        1 UNL1     0.0741
     69 H         -1.185029   0.525245   2.211135 H        1 UNL1     0.0359
     70 H         0.922948   0.739666   2.925255 H        1 UNL1     0.0600
     71 H         1.808175   -0.394524   1.30208 H        1 UNL1     0.0348
     72 H         3.36081   1.481794   1.273811 H        1 UNL1     0.0602
     73 H         0.744306   5.409165   -0.47576 H        1 UNL1     0.0628
     74 H         1.538571   5.451733   2.495428 H        1 UNL1     0.1022
     75 H         10.878238   2.262094   -3.564249 H        1 UNL1     0.0279
     76 H         10.799256   3.516518   -4.736205 H        1 UNL1     0.0279
     77 H         11.888589   3.621328   -3.294794 H        1 UNL1     0.0279
     78 H         9.023882   4.808753   -5.093061 H        1 UNL1     0.1553
     79 H         7.751547   3.334898   -4.725446 H        1 UNL1     0.1484
     80 H         4.003338   2.720559   -4.839524 H        1 UNL1     0.0317
     81 H         4.730957   4.248287   -5.315492 H        1 UNL1     0.0317
     82 H         6.640253   3.059409   -6.426735 H        1 UNL1     0.0428
     83 H         5.082191   2.575992   -7.059549 H        1 UNL1     0.0428
     84 H         6.884727   -0.043133   -4.232149 H        1 UNL1     0.0428
     85 H         7.788073   1.368622   -4.656455 H        1 UNL1     0.0428
     86 H         6.507548   1.446368   -2.516581 H        1 UNL1     0.0317
     87 H         5.007924   1.211393   -3.29006 H        1 UNL1     0.0317
     88 H         7.220928   0.869576   -7.423635 H        1 UNL1     0.0429
     89 H         6.866734   -0.615163   -6.536881 H        1 UNL1     0.0429
     90 H         4.319629   0.262921   -7.350425 H        1 UNL1     0.0308
     91 H         6.379454   1.332358   -9.263846 H        1 UNL1     0.0233
     92 H         4.998236   0.470318   -9.988152 H        1 UNL1     0.0233
     93 H         4.731121   1.884574   -8.991592 H        1 UNL1     0.0233
     94 H         4.617575   -1.531257   -9.153408 H        1 UNL1     0.0233
     95 H         6.247781   -1.740639   -8.495443 H        1 UNL1     0.0233
     96 H         4.829092   -2.016556   -7.458533 H        1 UNL1     0.0233
     97 H         4.05748   10.535007   -0.223388 H        1 UNL1     0.0280
     98 H         5.690989   11.124516   -0.369388 H        1 UNL1     0.0280
     99 H         4.600971   11.171248   -1.786924 H        1 UNL1     0.0280
     100 H         6.640603   10.740205   -3.067418 H        1 UNL1     0.2922
     101 H         4.688715   1.014192   2.44132 H        1 UNL1     0.0236
     102 H         6.119957   2.117554   2.427161 H        1 UNL1     0.0236
     103 H         6.243338   0.469846   1.892996 H        1 UNL1     0.0236
     104 H         4.252632   -0.56699   1.286471 H        1 UNL1     0.2098
     105 H         0.700223   1.279938   -0.939274 H        1 UNL1     0.0234
     106 H         1.286641   -0.405592   -1.018014 H        1 UNL1     0.0234
     107 H         0.0   -0.0   0.0 H        1 UNL1     0.0234
     108 H         1.252669   3.254474   1.70144 H        1 UNL1     0.2098
     109 H         1.067349   3.059896   -0.870266 H        1 UNL1     0.0234
     110 H         -0.188539   2.318081   -1.912023 H        1 UNL1     0.0234
     111 H         0.044768   4.03109   -1.908565 H        1 UNL1     0.0234
     112 H         -3.634817   -1.576405   1.33711 H        1 UNL1     0.0342
     113 H         -3.452399   0.087317   1.998162 H        1 UNL1     0.0342
     114 H         -4.468161   -0.205436   0.583774 H        1 UNL1     0.0342
     115 H         -2.661263   2.056315   3.253656 H        1 UNL1     0.0234
     116 H         -1.207087   1.847104   4.23467 H        1 UNL1     0.0234
     117 H         -1.512713   3.310786   3.276612 H        1 UNL1     0.0234
     118 H         0.914591   7.678581   -0.80991 H        1 UNL1     0.0309
     119 H         2.178139   7.785898   -2.074818 H        1 UNL1     0.0309
     120 H         1.431574   6.26187   -1.648044 H        1 UNL1     0.0309
     121 H         -0.833531   5.4093   3.96963 H        1 UNL1     0.0524
     122 H         -0.558521   6.459563   2.57386 H        1 UNL1     0.0524
     123 H         -2.184483   5.794112   2.869095 H        1 UNL1     0.0524
@<TRIPOS>BOND
     1     1     2    1
     2     1    42    1
     3     2     3    2
     4     3     4    1
     5     4     5    2
     6     5     7    1
     7     6    75    1
     8     6    76    1
     9     6    77    1
    10     7     9   am
    11     9    10    1
    12    10    11    2
    13    10    43    1
    14    11    14    1
    15    11    15    1
    16    12    13   ar
    17    12    27   ar
    18    12    43    1
    19    13    14    1
    20    13    30   ar
    21    14    17    2
    22    15    16    1
    23    16    17    1
    24    16    18    1
    25    16    22    1
    26    18    19    1
    27    19    20    1
    28    20    21    1
    29    21    22    1
    30    23    24    1
    31    23    88    1
    32    23    89    1
    33    24    25    1
    34    24    26    1
    35    24    90    1
    36    25    91    1
    37    25    92    1
    38    25    93    1
    39    26    94    1
    40    26    95    1
    41    26    96    1
    42    27    28   ar
    43    28    29   ar
    44    29    30   ar
    45    29    31    1
    46    30    33    1
    47    31    32    1
    48    32    33    1
    49    32    35    1
    50    34    97    1
    51    34    98    1
    52    34    99    1
    53    35    61    1
    54    36    37    1
    55    36    60    1
    56    37    38    1
    57    38    39    1
    58    39    40    1
    59    40    41    1
    60    41    42    1
    61    45   100    1
    62    47   101    1
    63    47   102    1
    64    47   103    1
    65    48   104    1
    66    49   105    1
    67    49   106    1
    68    49   107    1
    69    50   108    1
    70    51    59    1
    71    52   109    1
    72    52   110    1
    73    52   111    1
    74    53    54    1
    75    54    55    2
    76    54    56    1
    77    56   112    1
    78    56   113    1
    79    56   114    1
    80    57   115    1
    81    57   116    1
    82    57   117    1
    83    58   118    1
    84    58   119    1
    85    58   120    1
    86    59   121    1
    87    59   122    1
    88    59   123    1
    89    60    61    2
    90     1    47    1
    91     1    62    1
    92     2    63    1
    93     3    64    1
    94     4    65    1
    95     5     6    1
    96     7     8    2
    97     9    78    1
    98    15    79    1
    99    18    80    1
   100    18    81    1
   101    19    82    1
   102    19    83    1
   103    20    23    1
   104    21    84    1
   105    21    85    1
   106    22    86    1
   107    22    87    1
   108    27    45    1
   109    28    34    1
   110    32    58    1
   111    33    46    2
   112    36    51    1
   113    36    66    1
   114    37    52    1
   115    37    67    1
   116    38    53    1
   117    38    68    1
   118    42    48    1
   119    42    72    1
   120    43    44    2
   121    60    73    1
   122    61    74    1
   123    39    69    1
   124    39    57    1
   125    40    70    1
   126    40    50    1
   127    41    71    1
   128    41    49    1
