@<TRIPOS>MOLECULE
*****
 123 128 0 0 0
SMALL
GASTEIGER

@<TRIPOS>ATOM
     1 C         4.972303   2.23807   0.528168 C.3        1 UNL1     0.0009
     2 C         6.359808   3.114324   -0.334414 C.2        1 UNL1     -0.0787
     3 C         7.672115   3.0923   -0.945488 C.2        1 UNL1     -0.0649
     4 C         8.458391   4.346268   -1.767492 C.2        1 UNL1     -0.0542
     5 C         9.484378   4.665172   -2.690925 C.2        1 UNL1     0.0115
     6 C         10.702734   4.089494   -3.463922 C.3        1 UNL1     -0.0348
     7 C         9.462802   6.099561   -3.411378 C.2        1 UNL1     0.2441
     8 O         10.187613   7.025129   -3.073001 O.2        1 UNL1     -0.2702
     9 N         8.74623   6.140836   -4.620085 N.am        1 UNL1     -0.2772
     10 C         7.420316   6.421948   -4.382913 C.2        1 UNL1     0.1049
     11 C         6.659832   5.397104   -4.042942 C.2        1 UNL1     0.0801
     12 C         5.915815   7.996222   -3.151867 C.ar        1 UNL1     0.0753
     13 C         5.250006   6.836626   -2.641334 C.ar        1 UNL1     0.0305
     14 C         5.518461   5.50312   -3.174951 C.2        1 UNL1     0.0924
     15 N         6.915676   4.078448   -4.090061 N.pl3        1 UNL1     -0.3170
     16 C         5.69688   3.38276   -3.772555 C.3        1 UNL1     0.1275
     17 N         4.931246   4.342981   -2.895342 N.2        1 UNL1     -0.2557
     18 C         4.896318   3.260019   -5.065511 C.3        1 UNL1     0.0016
     19 C         5.760102   2.569078   -6.108616 C.3        1 UNL1     0.0026
     20 N         6.14439   1.258142   -5.603841 N.3        1 UNL1     -0.3018
     21 C         6.866675   1.269649   -4.330051 C.3        1 UNL1     0.0026
     22 C         5.978864   1.964026   -3.295872 C.3        1 UNL1     0.0016
     23 C         6.711667   0.403629   -6.627876 C.3        1 UNL1     0.0012
     24 C         5.627827   -0.033463   -7.625873 C.3        1 UNL1     -0.0339
     25 C         5.960469   0.426832   -9.054696 C.3        1 UNL1     -0.0615
     26 C         5.430648   -1.537742   -7.554847 C.3        1 UNL1     -0.0615
     27 C         5.568208   9.275227   -2.723575 C.ar        1 UNL1     0.1347
     28 C         4.548148   9.521763   -1.822049 C.ar        1 UNL1     0.0342
     29 C         3.939599   8.362357   -1.296113 C.ar        1 UNL1     0.1435
     30 C         4.301839   7.073217   -1.688696 C.ar        1 UNL1     0.0774
     31 O         2.857474   8.437861   -0.490935 O.3        1 UNL1     -0.4436
     32 C         2.263732   7.132549   -0.558032 C.3        1 UNL1     0.3143
     33 C         3.388947   6.206386   -0.973156 C.2        1 UNL1     0.2504
     34 C         3.954444   10.866889   -1.508597 C.3        1 UNL1     -0.0327
     35 O         1.891394   6.764863   0.775919 O.2        1 UNL1     -0.4528
     36 C         -1.132232   4.497165   0.42474 C.3        1 UNL1     0.0854
     37 C         -1.277402   3.147358   -0.378049 C.3        1 UNL1     0.0236
     38 C         -1.787183   1.897508   0.487827 C.3        1 UNL1     0.1131
     39 C         -1.069437   1.542456   1.852029 C.3        1 UNL1     0.0200
     40 C         0.594842   1.565235   1.962007 C.3        1 UNL1     0.0661
     41 C         1.671788   0.807311   0.892733 C.3        1 UNL1     0.0091
     42 C         3.359084   1.292252   0.360502 C.3        1 UNL1     0.0661
     43 C         6.927766   7.797772   -4.219027 C.2        1 UNL1     0.2131
     44 O         7.269788   8.67303   -4.993419 O.2        1 UNL1     -0.2851
     45 O         6.296279   10.347145   -3.235767 O.3        1 UNL1     -0.5056
     46 O         3.51452   5.023946   -0.745299 O.2        1 UNL1     -0.2836
     47 C         5.346987   1.961679   2.009114 C.3        1 UNL1     -0.0566
     48 O         3.936789   -0.057185   0.571196 O.3        1 UNL1     -0.3909
     49 C         0.916688   0.398851   -0.352449 C.3        1 UNL1     -0.0577
     50 O         1.058643   2.862985   2.275787 O.3        1 UNL1     -0.3910
     51 O         -1.296123   4.403712   1.821821 O.3        1 UNL1     -0.3753
     52 C         -0.174748   3.002656   -1.477214 C.3        1 UNL1     -0.0564
     53 O         -2.249129   0.738009   -0.345536 O.3        1 UNL1     -0.4608
     54 C         -2.60549   -0.494761   0.135312 C.2        1 UNL1     0.3042
     55 O         -2.249879   -1.593425   -0.289326 O.2        1 UNL1     -0.2512
     56 C         -3.485645   -0.434587   1.351215 C.3        1 UNL1     0.0332
     57 C         -1.903684   2.231978   3.029639 C.3        1 UNL1     -0.0567
     58 C         1.216662   7.186197   -1.694823 C.3        1 UNL1     0.0210
     59 C         -2.511121   4.960573   2.321371 C.3        1 UNL1     0.0372
     60 C         0.138992   5.234785   0.190072 C.2        1 UNL1     -0.0208
     61 C         0.968634   5.82358   1.052486 C.2        1 UNL1     0.0882
     62 H         4.401128   3.174229   0.519352 H        1 UNL1     0.0365
     63 H         5.989733   4.14165   -0.323654 H        1 UNL1     0.0576
     64 H         8.229103   2.161238   -1.071962 H        1 UNL1     0.0615
     65 H         7.87176   5.233046   -1.512597 H        1 UNL1     0.0622
     66 H         -1.931171   5.140452   0.029868 H        1 UNL1     0.0645
     67 H         -2.142054   3.321832   -1.041747 H        1 UNL1     0.0362
     68 H         -2.785692   2.264492   0.770361 H        1 UNL1     0.0741
     69 H         -1.310613   0.5216   2.116785 H        1 UNL1     0.0359
     70 H         0.732069   0.98889   2.896916 H        1 UNL1     0.0600
     71 H         1.794869   -0.168695   1.40187 H        1 UNL1     0.0348
     72 H         3.165782   1.841497   1.29339 H        1 UNL1     0.0602
     73 H         0.281039   5.362418   -0.854332 H        1 UNL1     0.0628
     74 H         0.926268   5.695105   2.134584 H        1 UNL1     0.1022
     75 H         11.363472   3.507615   -2.77699 H        1 UNL1     0.0279
     76 H         10.483293   3.366357   -4.246218 H        1 UNL1     0.0279
     77 H         11.391179   4.871664   -3.815996 H        1 UNL1     0.0279
     78 H         8.789935   5.231249   -5.074858 H        1 UNL1     0.1553
     79 H         7.644271   3.672028   -4.647649 H        1 UNL1     0.1484
     80 H         3.979109   2.692967   -4.865647 H        1 UNL1     0.0317
     81 H         4.583154   4.24541   -5.426875 H        1 UNL1     0.0317
     82 H         6.645266   3.169016   -6.366434 H        1 UNL1     0.0428
     83 H         5.170671   2.493495   -7.022897 H        1 UNL1     0.0428
     84 H         7.073119   0.270549   -3.933829 H        1 UNL1     0.0428
     85 H         7.860275   1.728504   -4.427667 H        1 UNL1     0.0428
     86 H         6.478156   1.836446   -2.353312 H        1 UNL1     0.0317
     87 H         5.045228   1.403065   -3.166484 H        1 UNL1     0.0317
     88 H         7.473733   0.979212   -7.169405 H        1 UNL1     0.0429
     89 H         7.217615   -0.465014   -6.187138 H        1 UNL1     0.0429
     90 H         4.668738   0.40859   -7.330998 H        1 UNL1     0.0308
     91 H         6.712857   1.221191   -9.051624 H        1 UNL1     0.0233
     92 H         6.3249   -0.409996   -9.655126 H        1 UNL1     0.0233
     93 H         5.083109   0.821703   -9.581149 H        1 UNL1     0.0233
     94 H         6.235081   -2.049976   -8.093679 H        1 UNL1     0.0233
     95 H         5.458195   -1.869411   -6.513118 H        1 UNL1     0.0233
     96 H         4.475127   -1.836183   -7.995164 H        1 UNL1     0.0233
     97 H         2.887997   10.898703   -1.710857 H        1 UNL1     0.0280
     98 H         4.067495   11.132473   -0.44938 H        1 UNL1     0.0280
     99 H         4.445811   11.639308   -2.122619 H        1 UNL1     0.0280
     100 H         7.230486   10.242296   -3.192327 H        1 UNL1     0.2922
     101 H         4.818496   2.659342   2.658437 H        1 UNL1     0.0236
     102 H         6.421629   1.970238   2.188156 H        1 UNL1     0.0236
     103 H         5.014734   0.963879   2.341071 H        1 UNL1     0.0236
     104 H         3.650296   -0.620363   -0.174272 H        1 UNL1     0.2098
     105 H         0.685092   1.219542   -1.02672 H        1 UNL1     0.0234
     106 H         1.361977   -0.429052   -0.90401 H        1 UNL1     0.0234
     107 H         0.0   -0.0   0.0 H        1 UNL1     0.0234
     108 H         1.964892   2.941014   1.920269 H        1 UNL1     0.2098
     109 H         0.327138   3.95664   -1.691076 H        1 UNL1     0.0234
     110 H         0.574274   2.240196   -1.237704 H        1 UNL1     0.0234
     111 H         -0.598208   2.668589   -2.433785 H        1 UNL1     0.0234
     112 H         -3.723004   -1.447838   1.689339 H        1 UNL1     0.0342
     113 H         -3.036945   0.149819   2.153076 H        1 UNL1     0.0342
     114 H         -4.427586   0.055586   1.069006 H        1 UNL1     0.0342
     115 H         -2.661823   2.925789   2.641002 H        1 UNL1     0.0234
     116 H         -2.412612   1.523905   3.686659 H        1 UNL1     0.0234
     117 H         -1.299622   2.907439   3.659562 H        1 UNL1     0.0234
     118 H         0.183369   7.131793   -1.309656 H        1 UNL1     0.0309
     119 H         1.316224   8.072723   -2.329142 H        1 UNL1     0.0309
     120 H         1.28139   6.323577   -2.366987 H        1 UNL1     0.0309
     121 H         -2.334795   6.018787   2.512291 H        1 UNL1     0.0524
     122 H         -3.335514   4.887587   1.592614 H        1 UNL1     0.0524
     123 H         -2.805686   4.458234   3.238421 H        1 UNL1     0.0524
@<TRIPOS>BOND
     1     1     2    1
     2     1    42    1
     3     2     3    2
     4     3     4    1
     5     4     5    2
     6     5     7    1
     7     6    75    1
     8     6    76    1
     9     6    77    1
    10     7     9   am
    11     9    10    1
    12    10    11    2
    13    10    43    1
    14    11    14    1
    15    11    15    1
    16    12    13   ar
    17    12    27   ar
    18    12    43    1
    19    13    14    1
    20    13    30   ar
    21    14    17    2
    22    15    16    1
    23    16    17    1
    24    16    18    1
    25    16    22    1
    26    18    19    1
    27    19    20    1
    28    20    21    1
    29    21    22    1
    30    23    24    1
    31    23    88    1
    32    23    89    1
    33    24    25    1
    34    24    26    1
    35    24    90    1
    36    25    91    1
    37    25    92    1
    38    25    93    1
    39    26    94    1
    40    26    95    1
    41    26    96    1
    42    27    28   ar
    43    28    29   ar
    44    29    30   ar
    45    29    31    1
    46    30    33    1
    47    31    32    1
    48    32    33    1
    49    32    35    1
    50    34    97    1
    51    34    98    1
    52    34    99    1
    53    35    61    1
    54    36    37    1
    55    36    60    1
    56    37    38    1
    57    38    39    1
    58    39    40    1
    59    40    41    1
    60    41    42    1
    61    45   100    1
    62    47   101    1
    63    47   102    1
    64    47   103    1
    65    48   104    1
    66    49   105    1
    67    49   106    1
    68    49   107    1
    69    50   108    1
    70    51    59    1
    71    52   109    1
    72    52   110    1
    73    52   111    1
    74    53    54    1
    75    54    55    2
    76    54    56    1
    77    56   112    1
    78    56   113    1
    79    56   114    1
    80    57   115    1
    81    57   116    1
    82    57   117    1
    83    58   118    1
    84    58   119    1
    85    58   120    1
    86    59   121    1
    87    59   122    1
    88    59   123    1
    89    60    61    2
    90     1    47    1
    91     1    62    1
    92     2    63    1
    93     3    64    1
    94     4    65    1
    95     5     6    1
    96     7     8    2
    97     9    78    1
    98    15    79    1
    99    18    80    1
   100    18    81    1
   101    19    82    1
   102    19    83    1
   103    20    23    1
   104    21    84    1
   105    21    85    1
   106    22    86    1
   107    22    87    1
   108    27    45    1
   109    28    34    1
   110    32    58    1
   111    33    46    2
   112    36    51    1
   113    36    66    1
   114    37    52    1
   115    37    67    1
   116    38    53    1
   117    38    68    1
   118    42    48    1
   119    42    72    1
   120    43    44    2
   121    60    73    1
   122    61    74    1
   123    39    69    1
   124    39    57    1
   125    40    70    1
   126    40    50    1
   127    41    71    1
   128    41    49    1
