@<TRIPOS>MOLECULE
*****
 123 128 0 0 0
SMALL
GASTEIGER

@<TRIPOS>ATOM
     1 C         5.162997   1.767906   0.466096 C.3        1 UNL1     0.0009
     2 C         6.592521   2.57933   -0.391276 C.2        1 UNL1     -0.0787
     3 C         7.871489   2.485891   -1.063256 C.2        1 UNL1     -0.0649
     4 C         8.740659   3.724256   -1.823093 C.2        1 UNL1     -0.0542
     5 C         9.755   4.020678   -2.766663 C.2        1 UNL1     0.0115
     6 C         10.881266   3.399416   -3.637802 C.3        1 UNL1     -0.0348
     7 C         9.841885   5.504278   -3.373597 C.2        1 UNL1     0.2441
     8 O         10.664556   6.328969   -2.999934 O.2        1 UNL1     -0.2702
     9 N         9.085196   5.708469   -4.540593 N.am        1 UNL1     -0.2772
     10 C         7.802605   6.090398   -4.220571 C.2        1 UNL1     0.1049
     11 C         6.961857   5.115861   -3.924531 C.2        1 UNL1     0.0801
     12 C         6.505178   7.69223   -2.803479 C.ar        1 UNL1     0.0753
     13 C         5.752495   6.561512   -2.352311 C.ar        1 UNL1     0.0305
     14 C         5.871106   5.256254   -2.998286 C.2        1 UNL1     0.0924
     15 N         7.088617   3.787346   -4.084243 N.pl3        1 UNL1     -0.3170
     16 C         5.822533   3.183479   -3.763882 C.3        1 UNL1     0.1275
     17 N         5.187394   4.13635   -2.780846 N.2        1 UNL1     -0.2557
     18 C         4.963312   3.239394   -5.023372 C.3        1 UNL1     0.0016
     19 C         5.715201   2.558102   -6.155668 C.3        1 UNL1     0.0026
     20 N         5.992323   1.181009   -5.771159 N.3        1 UNL1     -0.3018
     21 C         6.76231   1.02344   -4.535579 C.3        1 UNL1     0.0026
     22 C         5.986497   1.711072   -3.41078 C.3        1 UNL1     0.0016
     23 C         6.434436   0.363124   -6.883024 C.3        1 UNL1     0.0012
     24 C         5.275141   0.109374   -7.859447 C.3        1 UNL1     -0.0339
     25 C         5.360861   1.032321   -9.086181 C.3        1 UNL1     -0.0615
     26 C         5.244659   -1.354677   -8.262442 C.3        1 UNL1     -0.0615
     27 C         6.298464   8.959157   -2.262847 C.ar        1 UNL1     0.1347
     28 C         5.343114   9.225154   -1.298169 C.ar        1 UNL1     0.0342
     29 C         4.648014   8.088115   -0.834336 C.ar        1 UNL1     0.1435
     30 C         4.869729   6.806908   -1.340866 C.ar        1 UNL1     0.0774
     31 O         3.61079   8.197828   0.024231 O.3        1 UNL1     -0.4436
     32 C         2.892995   6.962345   -0.114422 C.3        1 UNL1     0.3143
     33 C         3.907349   5.972996   -0.651532 C.2        1 UNL1     0.2504
     34 C         4.893381   10.589595   -0.855294 C.3        1 UNL1     -0.0327
     35 O         2.540414   6.524317   1.203557 O.2        1 UNL1     -0.4528
     36 C         -0.697359   4.580139   0.822653 C.3        1 UNL1     0.0854
     37 C         -1.00238   3.318429   -0.073212 C.3        1 UNL1     0.0236
     38 C         -1.594404   2.055175   0.717636 C.3        1 UNL1     0.1131
     39 C         -0.860332   1.526939   2.01547 C.3        1 UNL1     0.0200
     40 C         0.801569   1.387543   2.048512 C.3        1 UNL1     0.0661
     41 C         1.75805   0.622261   0.875014 C.3        1 UNL1     0.0091
     42 C         3.461505   0.991131   0.302669 C.3        1 UNL1     0.0661
     43 C         7.450489   7.488037   -3.929068 C.2        1 UNL1     0.2131
     44 O         7.843527   8.387583   -4.649538 O.2        1 UNL1     -0.2851
     45 O         7.104643   9.99726   -2.725294 O.3        1 UNL1     -0.5056
     46 O         3.928431   4.76953   -0.520845 O.2        1 UNL1     -0.2836
     47 C         5.567976   1.339913   1.902339 C.3        1 UNL1     -0.0566
     48 O         3.915682   -0.418303   0.382249 O.3        1 UNL1     -0.3909
     49 C         0.918673   0.386572   -0.360862 C.3        1 UNL1     -0.0577
     50 O         1.399172   2.607622   2.438385 O.3        1 UNL1     -0.3910
     51 O         -0.813935   4.390023   2.214665 O.3        1 UNL1     -0.3753
     52 C         0.03701   3.16181   -1.230834 C.3        1 UNL1     -0.0564
     53 O         -2.197555   1.013958   -0.179248 O.3        1 UNL1     -0.4608
     54 C         -2.394285   -0.301671   0.149913 C.2        1 UNL1     0.3042
     55 O         -1.718121   -1.268247   -0.199902 O.2        1 UNL1     -0.2512
     56 C         -3.545736   -0.52083   1.089511 C.3        1 UNL1     0.0332
     57 C         -1.577648   2.193277   3.280232 C.3        1 UNL1     -0.0567
     58 C         1.811607   7.203442   -1.193312 C.3        1 UNL1     0.0210
     59 C         -1.127865   5.567873   2.956274 C.3        1 UNL1     0.0372
     60 C         0.628156   5.214131   0.585536 C.2        1 UNL1     -0.0208
     61 C         1.543721   5.652751   1.450463 C.2        1 UNL1     0.0882
     62 H         4.683873   2.750313   0.555695 H        1 UNL1     0.0365
     63 H         6.322897   3.632139   -0.284668 H        1 UNL1     0.0576
     64 H         8.331628   1.520737   -1.286544 H        1 UNL1     0.0615
     65 H         8.251899   4.637851   -1.473892 H        1 UNL1     0.0622
     66 H         -1.446275   5.323903   0.516081 H        1 UNL1     0.0645
     67 H         -1.87205   3.624581   -0.680258 H        1 UNL1     0.0362
     68 H         -2.54135   2.488553   1.074008 H        1 UNL1     0.0741
     69 H         -1.187152   0.514625   2.212493 H        1 UNL1     0.0359
     70 H         0.920101   0.727646   2.929164 H        1 UNL1     0.0600
     71 H         1.807499   -0.398728   1.301738 H        1 UNL1     0.0348
     72 H         3.35862   1.47896   1.282849 H        1 UNL1     0.0602
     73 H         0.740242   5.411795   -0.451582 H        1 UNL1     0.0628
     74 H         1.532196   5.442045   2.520373 H        1 UNL1     0.1022
     75 H         10.879109   2.286493   -3.545974 H        1 UNL1     0.0279
     76 H         10.799998   3.545954   -4.712507 H        1 UNL1     0.0279
     77 H         11.888141   3.645361   -3.269814 H        1 UNL1     0.0279
     78 H         9.023841   4.838286   -5.065088 H        1 UNL1     0.1553
     79 H         7.752432   3.361804   -4.704885 H        1 UNL1     0.1484
     80 H         4.004816   2.744914   -4.824527 H        1 UNL1     0.0317
     81 H         4.731548   4.275296   -5.293265 H        1 UNL1     0.0317
     82 H         6.642667   3.092835   -6.408214 H        1 UNL1     0.0428
     83 H         5.085486   2.610915   -7.04433 H        1 UNL1     0.0428
     84 H         6.887999   -0.019053   -4.226999 H        1 UNL1     0.0428
     85 H         7.790514   1.395276   -4.644446 H        1 UNL1     0.0428
     86 H         6.508287   1.46264   -2.505239 H        1 UNL1     0.0317
     87 H         5.00945   1.229821   -3.280889 H        1 UNL1     0.0317
     88 H         7.225897   0.907847   -7.414212 H        1 UNL1     0.0429
     89 H         6.87224   -0.581035   -6.534217 H        1 UNL1     0.0429
     90 H         4.325041   0.298515   -7.345882 H        1 UNL1     0.0308
     91 H         6.37636   1.060573   -9.492465 H        1 UNL1     0.0233
     92 H         4.67134   0.702381   -9.866764 H        1 UNL1     0.0233
     93 H         5.083585   2.066945   -8.850583 H        1 UNL1     0.0233
     94 H         4.709789   -1.474315   -9.210828 H        1 UNL1     0.0233
     95 H         6.264133   -1.725294   -8.40129 H        1 UNL1     0.0233
     96 H         4.746636   -1.966707   -7.505236 H        1 UNL1     0.0233
     97 H         4.049025   10.539186   -0.1743 H        1 UNL1     0.0280
     98 H         5.682162   11.130658   -0.31647 H        1 UNL1     0.0280
     99 H         4.593192   11.182686   -1.734626 H        1 UNL1     0.0280
     100 H         6.636793   10.77423   -2.976405 H        1 UNL1     0.2922
     101 H         4.686012   1.007352   2.449329 H        1 UNL1     0.0236
     102 H         6.116361   2.111931   2.441085 H        1 UNL1     0.0236
     103 H         6.2415   0.466671   1.899832 H        1 UNL1     0.0236
     104 H         4.252108   -0.569131   1.287256 H        1 UNL1     0.2098
     105 H         0.699894   1.284595   -0.933141 H        1 UNL1     0.0234
     106 H         1.287752   -0.400096   -1.018783 H        1 UNL1     0.0234
     107 H         0.0   -0.0   0.0 H        1 UNL1     0.0234
     108 H         1.248701   3.248039   1.716586 H        1 UNL1     0.2098
     109 H         1.06551   3.064534   -0.856086 H        1 UNL1     0.0234
     110 H         -0.188972   2.326248   -1.902036 H        1 UNL1     0.0234
     111 H         0.04293   4.039415   -1.890925 H        1 UNL1     0.0234
     112 H         -3.634548   -1.585187   1.327422 H        1 UNL1     0.0342
     113 H         -3.453999   0.075783   1.995867 H        1 UNL1     0.0342
     114 H         -4.468437   -0.211624   0.579434 H        1 UNL1     0.0342
     115 H         -2.665437   2.039928   3.260548 H        1 UNL1     0.0234
     116 H         -1.211842   1.827623   4.241758 H        1 UNL1     0.0234
     117 H         -1.517931   3.295222   3.289861 H        1 UNL1     0.0234
     118 H         0.802681   7.298485   -0.755085 H        1 UNL1     0.0309
     119 H         2.015047   8.079507   -1.817269 H        1 UNL1     0.0309
     120 H         1.709143   6.357771   -1.882115 H        1 UNL1     0.0309
     121 H         -0.749888   5.430367   3.968984 H        1 UNL1     0.0524
     122 H         -0.642453   6.466224   2.539889 H        1 UNL1     0.0524
     123 H         -2.20264   5.724676   2.975394 H        1 UNL1     0.0524
@<TRIPOS>BOND
     1     1     2    1
     2     1    42    1
     3     2     3    2
     4     3     4    1
     5     4     5    2
     6     5     7    1
     7     6    75    1
     8     6    76    1
     9     6    77    1
    10     7     9   am
    11     9    10    1
    12    10    11    2
    13    10    43    1
    14    11    14    1
    15    11    15    1
    16    12    13   ar
    17    12    27   ar
    18    12    43    1
    19    13    14    1
    20    13    30   ar
    21    14    17    2
    22    15    16    1
    23    16    17    1
    24    16    18    1
    25    16    22    1
    26    18    19    1
    27    19    20    1
    28    20    21    1
    29    21    22    1
    30    23    24    1
    31    23    88    1
    32    23    89    1
    33    24    25    1
    34    24    26    1
    35    24    90    1
    36    25    91    1
    37    25    92    1
    38    25    93    1
    39    26    94    1
    40    26    95    1
    41    26    96    1
    42    27    28   ar
    43    28    29   ar
    44    29    30   ar
    45    29    31    1
    46    30    33    1
    47    31    32    1
    48    32    33    1
    49    32    35    1
    50    34    97    1
    51    34    98    1
    52    34    99    1
    53    35    61    1
    54    36    37    1
    55    36    60    1
    56    37    38    1
    57    38    39    1
    58    39    40    1
    59    40    41    1
    60    41    42    1
    61    45   100    1
    62    47   101    1
    63    47   102    1
    64    47   103    1
    65    48   104    1
    66    49   105    1
    67    49   106    1
    68    49   107    1
    69    50   108    1
    70    51    59    1
    71    52   109    1
    72    52   110    1
    73    52   111    1
    74    53    54    1
    75    54    55    2
    76    54    56    1
    77    56   112    1
    78    56   113    1
    79    56   114    1
    80    57   115    1
    81    57   116    1
    82    57   117    1
    83    58   118    1
    84    58   119    1
    85    58   120    1
    86    59   121    1
    87    59   122    1
    88    59   123    1
    89    60    61    2
    90     1    47    1
    91     1    62    1
    92     2    63    1
    93     3    64    1
    94     4    65    1
    95     5     6    1
    96     7     8    2
    97     9    78    1
    98    15    79    1
    99    18    80    1
   100    18    81    1
   101    19    82    1
   102    19    83    1
   103    20    23    1
   104    21    84    1
   105    21    85    1
   106    22    86    1
   107    22    87    1
   108    27    45    1
   109    28    34    1
   110    32    58    1
   111    33    46    2
   112    36    51    1
   113    36    66    1
   114    37    52    1
   115    37    67    1
   116    38    53    1
   117    38    68    1
   118    42    48    1
   119    42    72    1
   120    43    44    2
   121    60    73    1
   122    61    74    1
   123    39    69    1
   124    39    57    1
   125    40    70    1
   126    40    50    1
   127    41    71    1
   128    41    49    1
