@<TRIPOS>MOLECULE
*****
 123 128 0 0 0
SMALL
GASTEIGER

@<TRIPOS>ATOM
     1 C         5.164437   1.768398   0.447917 C.3        1 UNL1     0.0009
     2 C         6.590477   2.580982   -0.414146 C.2        1 UNL1     -0.0787
     3 C         7.866848   2.488483   -1.091175 C.2        1 UNL1     -0.0649
     4 C         8.732837   3.727802   -1.853087 C.2        1 UNL1     -0.0542
     5 C         9.743457   4.025395   -2.800273 C.2        1 UNL1     0.0115
     6 C         10.866453   3.405252   -3.676416 C.3        1 UNL1     -0.0348
     7 C         9.827715   5.509642   -3.405997 C.2        1 UNL1     0.2441
     8 O         10.651675   6.3341   -3.034668 O.2        1 UNL1     -0.2702
     9 N         9.066469   5.714902   -4.569838 N.am        1 UNL1     -0.2772
     10 C         7.785058   6.096256   -4.24445 C.2        1 UNL1     0.1049
     11 C         6.945644   5.121252   -3.946166 C.2        1 UNL1     0.0801
     12 C         6.492838   7.696369   -2.820674 C.ar        1 UNL1     0.0753
     13 C         5.742118   6.56504   -2.367768 C.ar        1 UNL1     0.0305
     14 C         5.858466   5.260477   -3.015555 C.2        1 UNL1     0.0924
     15 N         7.07203   3.792928   -4.107749 N.pl3        1 UNL1     -0.3170
     16 C         5.80731   3.188489   -3.783111 C.3        1 UNL1     0.1275
     17 N         5.175809   4.140218   -2.796631 N.2        1 UNL1     -0.2557
     18 C         4.943203   3.24555   -5.039202 C.3        1 UNL1     0.0016
     19 C         5.690822   2.565578   -6.175112 C.3        1 UNL1     0.0026
     20 N         5.969687   1.188138   -5.793113 N.3        1 UNL1     -0.3018
     21 C         6.744488   1.029431   -4.560691 C.3        1 UNL1     0.0026
     22 C         5.972914   1.715747   -3.432179 C.3        1 UNL1     0.0016
     23 C         6.407639   0.371492   -6.907533 C.3        1 UNL1     0.0012
     24 C         5.244614   0.118538   -7.879718 C.3        1 UNL1     -0.0339
     25 C         5.305955   1.066494   -9.088715 C.3        1 UNL1     -0.0615
     26 C         5.233821   -1.337668   -8.311144 C.3        1 UNL1     -0.0615
     27 C         6.287987   8.962695   -2.277928 C.ar        1 UNL1     0.1347
     28 C         5.336334   9.227508   -1.309278 C.ar        1 UNL1     0.0342
     29 C         4.643247   8.089856   -0.843937 C.ar        1 UNL1     0.1435
     30 C         4.863235   6.809219   -1.352654 C.ar        1 UNL1     0.0774
     31 O         3.609339   8.198481   0.018758 O.3        1 UNL1     -0.4436
     32 C         2.891241   6.963007   -0.118396 C.3        1 UNL1     0.3143
     33 C         3.903688   5.974409   -0.660463 C.2        1 UNL1     0.2504
     34 C         4.888068   10.591404   -0.863244 C.3        1 UNL1     -0.0327
     35 O         2.543852   6.523544   1.200484 O.2        1 UNL1     -0.4528
     36 C         -0.695013   4.57915   0.830111 C.3        1 UNL1     0.0854
     37 C         -1.003271   3.318314   -0.065875 C.3        1 UNL1     0.0236
     38 C         -1.591991   2.054127   0.725948 C.3        1 UNL1     0.1131
     39 C         -0.852795   1.524681   2.020376 C.3        1 UNL1     0.0200
     40 C         0.809248   1.385565   2.046831 C.3        1 UNL1     0.0661
     41 C         1.761314   0.621684   0.868839 C.3        1 UNL1     0.0091
     42 C         3.462469   0.991471   0.29028 C.3        1 UNL1     0.0661
     43 C         7.433816   7.493524   -3.950131 C.2        1 UNL1     0.2131
     44 O         7.823891   8.393893   -4.671183 O.2        1 UNL1     -0.2851
     45 O         7.092174   10.00143   -2.742417 O.3        1 UNL1     -0.5056
     46 O         3.9255   4.770812   -0.53111 O.2        1 UNL1     -0.2836
     47 C         5.575061   1.338989   1.882134 C.3        1 UNL1     -0.0566
     48 O         3.917212   -0.41796   0.366633 O.3        1 UNL1     -0.3909
     49 C         0.917196   0.387121   -0.364019 C.3        1 UNL1     -0.0577
     50 O         1.408131   2.605352   2.435653 O.3        1 UNL1     -0.3910
     51 O         -0.806157   4.387566   2.222366 O.3        1 UNL1     -0.3753
     52 C         0.031653   3.163094   -1.22768 C.3        1 UNL1     -0.0564
     53 O         -2.198421   1.013728   -0.169674 O.3        1 UNL1     -0.4608
     54 C         -2.424765   -0.294274   0.170662 C.2        1 UNL1     0.3042
     55 O         -1.854623   -1.290627   -0.272123 O.2        1 UNL1     -0.2512
     56 C         -3.456212   -0.465183   1.249374 C.3        1 UNL1     0.0332
     57 C         -1.565327   2.18957   3.288602 C.3        1 UNL1     -0.0567
     58 C         1.805634   7.20502   -1.192835 C.3        1 UNL1     0.0210
     59 C         -1.117427   5.564585   2.966411 C.3        1 UNL1     0.0372
     60 C         0.629456   5.213639   0.588518 C.2        1 UNL1     -0.0208
     61 C         1.548285   5.651533   1.450345 C.2        1 UNL1     0.0882
     62 H         4.685482   2.75062   0.540394 H        1 UNL1     0.0365
     63 H         6.321074   3.633629   -0.305398 H        1 UNL1     0.0576
     64 H         8.326296   1.523648   -1.317248 H        1 UNL1     0.0615
     65 H         8.245265   4.640941   -1.501045 H        1 UNL1     0.0622
     66 H         -1.445249   5.32309   0.527219 H        1 UNL1     0.0645
     67 H         -1.875344   3.624932   -0.669228 H        1 UNL1     0.0362
     68 H         -2.537628   2.486955   1.086438 H        1 UNL1     0.0741
     69 H         -1.178662   0.512102   2.217612 H        1 UNL1     0.0359
     70 H         0.931314   0.724777   2.92633 H        1 UNL1     0.0600
     71 H         1.812606   -0.399739   1.294306 H        1 UNL1     0.0348
     72 H         3.363294   1.478262   1.271358 H        1 UNL1     0.0602
     73 H         0.737484   5.412401   -0.448821 H        1 UNL1     0.0628
     74 H         1.540947   5.439713   2.520072 H        1 UNL1     0.1022
     75 H         10.897777   2.296558   -3.546605 H        1 UNL1     0.0279
     76 H         10.756392   3.512014   -4.753244 H        1 UNL1     0.0279
     77 H         11.874193   3.691327   -3.341271 H        1 UNL1     0.0279
     78 H         9.003242   4.845253   -5.094995 H        1 UNL1     0.1553
     79 H         7.733513   3.368157   -4.731403 H        1 UNL1     0.1484
     80 H         3.985575   2.750683   -4.837157 H        1 UNL1     0.0317
     81 H         4.710201   4.281689   -5.307118 H        1 UNL1     0.0317
     82 H         6.617203   3.100748   -6.430696 H        1 UNL1     0.0428
     83 H         5.057657   2.619194   -7.061271 H        1 UNL1     0.0428
     84 H         6.871565   -0.013358   -4.253684 H        1 UNL1     0.0428
     85 H         7.772193   1.401575   -4.673156 H        1 UNL1     0.0428
     86 H         6.498256   1.466473   -2.528926 H        1 UNL1     0.0317
     87 H         4.996466   1.234176   -3.299002 H        1 UNL1     0.0317
     88 H         7.196934   0.916917   -7.441218 H        1 UNL1     0.0429
     89 H         6.846966   -0.572946   -6.561407 H        1 UNL1     0.0429
     90 H         4.295846   0.282562   -7.355173 H        1 UNL1     0.0308
     91 H         6.256718   0.970483   -9.621569 H        1 UNL1     0.0233
     92 H         4.485039   0.863823   -9.780546 H        1 UNL1     0.0233
     93 H         5.208647   2.119766   -8.798914 H        1 UNL1     0.0233
     94 H         4.534963   -1.480123   -9.142493 H        1 UNL1     0.0233
     95 H         6.229529   -1.63337   -8.653323 H        1 UNL1     0.0233
     96 H         4.933032   -1.994806   -7.490374 H        1 UNL1     0.0233
     97 H         4.0951   10.537905   -0.123264 H        1 UNL1     0.0280
     98 H         5.700348   11.16063   -0.392672 H        1 UNL1     0.0280
     99 H         4.513361   11.158772   -1.730875 H        1 UNL1     0.0280
     100 H         6.619439   10.751066   -3.058945 H        1 UNL1     0.2922
     101 H         4.715256   0.912884   2.398687 H        1 UNL1     0.0236
     102 H         6.038848   2.142164   2.453794 H        1 UNL1     0.0236
     103 H         6.325239   0.530687   1.873608 H        1 UNL1     0.0236
     104 H         4.339531   -0.544795   1.238716 H        1 UNL1     0.2098
     105 H         0.696034   1.285696   -0.934511 H        1 UNL1     0.0234
     106 H         1.283867   -0.398794   -1.024183 H        1 UNL1     0.0234
     107 H         0.0   -0.0   0.0 H        1 UNL1     0.0234
     108 H         1.215913   3.258929   1.735897 H        1 UNL1     0.2098
     109 H         1.061616   3.065623   -0.857023 H        1 UNL1     0.0234
     110 H         -0.196775   2.328187   -1.898869 H        1 UNL1     0.0234
     111 H         0.034852   4.041386   -1.886876 H        1 UNL1     0.0234
     112 H         -3.573262   -1.526751   1.487534 H        1 UNL1     0.0342
     113 H         -3.21528   0.111101   2.141389 H        1 UNL1     0.0342
     114 H         -4.418058   -0.098079   0.865639 H        1 UNL1     0.0342
     115 H         -2.636233   1.94726   3.329024 H        1 UNL1     0.0234
     116 H         -1.127009   1.901009   4.246025 H        1 UNL1     0.0234
     117 H         -1.597682   3.291925   3.247294 H        1 UNL1     0.0234
     118 H         0.905715   7.686585   -0.771828 H        1 UNL1     0.0309
     119 H         2.164845   7.796586   -2.040902 H        1 UNL1     0.0309
     120 H         1.418067   6.272025   -1.616413 H        1 UNL1     0.0309
     121 H         -0.283037   6.256257   2.853551 H        1 UNL1     0.0524
     122 H         -2.021647   6.070895   2.589483 H        1 UNL1     0.0524
     123 H         -1.2618   5.319302   4.014785 H        1 UNL1     0.0524
@<TRIPOS>BOND
     1     1     2    1
     2     1    42    1
     3     2     3    2
     4     3     4    1
     5     4     5    2
     6     5     7    1
     7     6    75    1
     8     6    76    1
     9     6    77    1
    10     7     9   am
    11     9    10    1
    12    10    11    2
    13    10    43    1
    14    11    14    1
    15    11    15    1
    16    12    13   ar
    17    12    27   ar
    18    12    43    1
    19    13    14    1
    20    13    30   ar
    21    14    17    2
    22    15    16    1
    23    16    17    1
    24    16    18    1
    25    16    22    1
    26    18    19    1
    27    19    20    1
    28    20    21    1
    29    21    22    1
    30    23    24    1
    31    23    88    1
    32    23    89    1
    33    24    25    1
    34    24    26    1
    35    24    90    1
    36    25    91    1
    37    25    92    1
    38    25    93    1
    39    26    94    1
    40    26    95    1
    41    26    96    1
    42    27    28   ar
    43    28    29   ar
    44    29    30   ar
    45    29    31    1
    46    30    33    1
    47    31    32    1
    48    32    33    1
    49    32    35    1
    50    34    97    1
    51    34    98    1
    52    34    99    1
    53    35    61    1
    54    36    37    1
    55    36    60    1
    56    37    38    1
    57    38    39    1
    58    39    40    1
    59    40    41    1
    60    41    42    1
    61    45   100    1
    62    47   101    1
    63    47   102    1
    64    47   103    1
    65    48   104    1
    66    49   105    1
    67    49   106    1
    68    49   107    1
    69    50   108    1
    70    51    59    1
    71    52   109    1
    72    52   110    1
    73    52   111    1
    74    53    54    1
    75    54    55    2
    76    54    56    1
    77    56   112    1
    78    56   113    1
    79    56   114    1
    80    57   115    1
    81    57   116    1
    82    57   117    1
    83    58   118    1
    84    58   119    1
    85    58   120    1
    86    59   121    1
    87    59   122    1
    88    59   123    1
    89    60    61    2
    90     1    47    1
    91     1    62    1
    92     2    63    1
    93     3    64    1
    94     4    65    1
    95     5     6    1
    96     7     8    2
    97     9    78    1
    98    15    79    1
    99    18    80    1
   100    18    81    1
   101    19    82    1
   102    19    83    1
   103    20    23    1
   104    21    84    1
   105    21    85    1
   106    22    86    1
   107    22    87    1
   108    27    45    1
   109    28    34    1
   110    32    58    1
   111    33    46    2
   112    36    51    1
   113    36    66    1
   114    37    52    1
   115    37    67    1
   116    38    53    1
   117    38    68    1
   118    42    48    1
   119    42    72    1
   120    43    44    2
   121    60    73    1
   122    61    74    1
   123    39    69    1
   124    39    57    1
   125    40    70    1
   126    40    50    1
   127    41    71    1
   128    41    49    1
