@<TRIPOS>MOLECULE
*****
 123 128 0 0 0
SMALL
GASTEIGER

@<TRIPOS>ATOM
     1 C         3.021594   -2.476088   3.273389 C.3        1 UNL1     0.0009
     2 C         3.610339   -2.470458   5.031338 C.2        1 UNL1     -0.0787
     3 C         4.504734   -1.971904   6.054835 C.2        1 UNL1     -0.0649
     4 C         4.476947   -2.306795   7.714183 C.2        1 UNL1     -0.0542
     5 C         4.895599   -1.867698   8.994418 C.2        1 UNL1     0.0115
     6 C         5.8093   -0.855834   9.739135 C.3        1 UNL1     -0.0348
     7 C         4.156382   -2.449289   10.295301 C.2        1 UNL1     0.2441
     8 O         4.642228   -3.321047   11.002774 O.2        1 UNL1     -0.2702
     9 N         3.036679   -1.710764   10.716014 N.am        1 UNL1     -0.2772
     10 C         1.901974   -2.151738   10.074681 C.2        1 UNL1     0.1049
     11 C         1.688843   -1.66249   8.866611 C.2        1 UNL1     0.0801
     12 C         0.626604   -4.225959   9.501643 C.ar        1 UNL1     0.0753
     13 C         0.604534   -3.745771   8.153481 C.ar        1 UNL1     0.0305
     14 C         1.020754   -2.385707   7.81876 C.2        1 UNL1     0.0924
     15 N         2.28608   -0.639779   8.231082 N.pl3        1 UNL1     -0.3170
     16 C         1.569065   -0.404908   7.005937 C.3        1 UNL1     0.1275
     17 N         0.973579   -1.746159   6.653565 N.2        1 UNL1     -0.2557
     18 C         0.391891   0.506835   7.338637 C.3        1 UNL1     0.0016
     19 C         0.924583   1.765113   8.005392 C.3        1 UNL1     0.0026
     20 N         1.85331   2.419848   7.09445 N.3        1 UNL1     -0.3018
     21 C         2.988407   1.598975   6.667729 C.3        1 UNL1     0.0026
     22 C         2.430311   0.342785   5.996602 C.3        1 UNL1     0.0016
     23 C         2.186387   3.770002   7.502849 C.3        1 UNL1     0.0012
     24 C         3.109636   4.433247   6.468695 C.3        1 UNL1     -0.0339
     25 C         3.272818   5.937255   6.743263 C.3        1 UNL1     -0.0615
     26 C         4.451281   3.722099   6.43647 C.3        1 UNL1     -0.0615
     27 C         0.115776   -5.479561   9.82975 C.ar        1 UNL1     0.1347
     28 C         -0.47601   -6.322559   8.906065 C.ar        1 UNL1     0.0342
     29 C         -0.442419   -5.849629   7.577015 C.ar        1 UNL1     0.1435
     30 C         0.098508   -4.611604   7.227854 C.ar        1 UNL1     0.0774
     31 O         -1.075504   -6.50489   6.579598 O.3        1 UNL1     -0.4436
     32 C         -1.224769   -5.526083   5.540113 C.3        1 UNL1     0.3143
     33 C         -0.142125   -4.499315   5.804389 C.2        1 UNL1     0.2504
     34 C         -1.265746   -7.562003   9.222602 C.3        1 UNL1     -0.0327
     35 O         -0.898046   -6.167368   4.301058 O.2        1 UNL1     -0.4528
     36 C         -2.974193   -4.420982   1.646282 C.3        1 UNL1     0.0854
     37 C         -3.019304   -2.891738   1.263007 C.3        1 UNL1     0.0236
     38 C         -2.73602   -2.57384   -0.283096 C.3        1 UNL1     0.1131
     39 C         -1.458527   -3.183928   -0.988839 C.3        1 UNL1     0.0200
     40 C         0.017757   -3.181584   -0.212297 C.3        1 UNL1     0.0661
     41 C         0.744228   -1.844274   0.537005 C.3        1 UNL1     0.0091
     42 C         1.842719   -1.753154   2.003436 C.3        1 UNL1     0.0661
     43 C         1.130115   -3.308166   10.553495 C.2        1 UNL1     0.2131
     44 O         0.850968   -3.419149   11.733536 O.2        1 UNL1     -0.2851
     45 O         0.217268   -5.890211   11.157343 O.3        1 UNL1     -0.5056
     46 O         0.412677   -3.768843   5.014161 O.2        1 UNL1     -0.2836
     47 C         4.026075   -3.241732   2.370732 C.3        1 UNL1     -0.0566
     48 O         2.831482   -0.862257   1.349397 O.3        1 UNL1     -0.3909
     49 C         -0.288757   -0.750306   0.690854 C.3        1 UNL1     -0.0577
     50 O         0.156529   -4.32716   0.603865 O.3        1 UNL1     -0.3910
     51 O         -2.523955   -5.296058   0.636847 O.3        1 UNL1     -0.3753
     52 C         -2.466404   -1.98728   2.412444 C.3        1 UNL1     -0.0564
     53 O         -3.124335   -1.182786   -0.69115 O.3        1 UNL1     -0.4608
     54 C         -3.667258   -0.830872   -1.899173 C.2        1 UNL1     0.3042
     55 O         -4.723955   -0.232528   -2.097197 O.2        1 UNL1     -0.2512
     56 C         -2.804755   -1.193162   -3.074567 C.3        1 UNL1     0.0332
     57 C         -1.91097   -4.529542   -1.725585 C.3        1 UNL1     -0.0567
     58 C         -2.604856   -4.863298   5.758299 C.3        1 UNL1     0.0210
     59 C         -1.975292   -4.653254   -0.512778 C.3        1 UNL1     0.0372
     60 C         -2.190982   -4.739443   2.871159 C.2        1 UNL1     -0.0208
     61 C         -1.302089   -5.706637   3.101699 C.2        1 UNL1     0.0882
     62 H         2.243786   -3.195582   3.556327 H        1 UNL1     0.0365
     63 H         2.986963   -3.259378   5.457339 H        1 UNL1     0.0576
     64 H         5.214143   -1.166417   5.852256 H        1 UNL1     0.0615
     65 H         3.807017   -3.16709   7.795234 H        1 UNL1     0.0622
     66 H         -4.016975   -4.677798   1.880156 H        1 UNL1     0.0645
     67 H         -4.086938   -2.624964   1.349888 H        1 UNL1     0.0362
     68 H         -3.595112   -3.090531   -0.737534 H        1 UNL1     0.0741
     69 H         -1.254288   -2.618321   -1.888162 H        1 UNL1     0.0359
     70 H         0.686432   -3.372757   -1.073335 H        1 UNL1     0.0600
     71 H         1.34856   -1.455156   -0.305804 H        1 UNL1     0.0348
     72 H         1.887604   -2.795283   1.6552 H        1 UNL1     0.0602
     73 H         -2.527989   -4.126978   3.67026 H        1 UNL1     0.0628
     74 H         -0.863443   -6.338148   2.32838 H        1 UNL1     0.1022
     75 H         6.271751   -0.140265   9.017239 H        1 UNL1     0.0279
     76 H         5.320338   -0.190816   10.447468 H        1 UNL1     0.0279
     77 H         6.700652   -1.329403   10.176085 H        1 UNL1     0.0279
     78 H         3.163422   -0.730064   10.474682 H        1 UNL1     0.1553
     79 H         2.812633   0.075186   8.698522 H        1 UNL1     0.1484
     80 H         -0.150439   0.741977   6.414866 H        1 UNL1     0.0317
     81 H         -0.319928   0.001245   7.999957 H        1 UNL1     0.0317
     82 H         1.405965   1.542612   8.969071 H        1 UNL1     0.0428
     83 H         0.068645   2.400222   8.235734 H        1 UNL1     0.0428
     84 H         3.626147   2.085434   5.92311 H        1 UNL1     0.0428
     85 H         3.670463   1.379807   7.500845 H        1 UNL1     0.0428
     86 H         3.280612   -0.165772   5.581456 H        1 UNL1     0.0317
     87 H         1.843509   0.619674   5.112243 H        1 UNL1     0.0317
     88 H         1.255178   4.348499   7.561876 H        1 UNL1     0.0429
     89 H         2.637729   3.784103   8.503281 H        1 UNL1     0.0429
     90 H         2.678883   4.305605   5.468509 H        1 UNL1     0.0308
     91 H         4.268961   6.287983   6.457269 H        1 UNL1     0.0233
     92 H         2.520109   6.513065   6.199682 H        1 UNL1     0.0233
     93 H         3.140556   6.185001   7.803435 H        1 UNL1     0.0233
     94 H         5.091906   4.159095   5.662861 H        1 UNL1     0.0233
     95 H         4.958297   3.837054   7.398594 H        1 UNL1     0.0233
     96 H         4.332682   2.65568   6.225157 H        1 UNL1     0.0233
     97 H         -2.335512   -7.375394   9.219472 H        1 UNL1     0.0280
     98 H         -1.097565   -8.35907   8.486631 H        1 UNL1     0.0280
     99 H         -0.982943   -7.934943   10.220617 H        1 UNL1     0.0280
     100 H         -0.087278   -6.765516   11.320793 H        1 UNL1     0.2922
     101 H         3.482097   -3.829592   1.631703 H        1 UNL1     0.0236
     102 H         4.7337   -3.848015   2.935241 H        1 UNL1     0.0236
     103 H         4.65405   -2.557048   1.776554 H        1 UNL1     0.0236
     104 H         2.400734   -0.468752   0.565445 H        1 UNL1     0.2098
     105 H         -1.303904   -1.053737   0.447507 H        1 UNL1     0.0234
     106 H         -0.26816   -0.236439   1.651814 H        1 UNL1     0.0234
     107 H         0.0   0.0   0.0 H        1 UNL1     0.0234
     108 H         -0.039617   -5.105342   0.047334 H        1 UNL1     0.2098
     109 H         -2.635484   -0.918795   2.218886 H        1 UNL1     0.0234
     110 H         -2.867961   -2.249287   3.397253 H        1 UNL1     0.0234
     111 H         -1.380308   -2.099966   2.529247 H        1 UNL1     0.0234
     112 H         -3.393987   -1.150843   -3.995632 H        1 UNL1     0.0342
     113 H         -1.922259   -0.559155   -3.145832 H        1 UNL1     0.0342
     114 H         -2.461128   -2.228282   -2.941861 H        1 UNL1     0.0342
     115 H         -1.051971   -5.168423   -1.972849 H        1 UNL1     0.0234
     116 H         -2.615699   -5.134512   -1.151638 H        1 UNL1     0.0234
     117 H         -2.344585   -4.358901   -2.725986 H        1 UNL1     0.0234
     118 H         -3.166486   -4.754519   4.813976 H        1 UNL1     0.0309
     119 H         -3.226622   -5.394956   6.485588 H        1 UNL1     0.0309
     120 H         -2.523671   -3.833805   6.123893 H        1 UNL1     0.0309
     121 H         -1.562477   -5.428093   -1.158196 H        1 UNL1     0.0524
     122 H         -2.739659   -4.110189   -1.093175 H        1 UNL1     0.0524
     123 H         -1.195743   -3.956606   -0.217686 H        1 UNL1     0.0524
@<TRIPOS>BOND
     1     1     2    1
     2     1    42    1
     3     2     3    2
     4     3     4    1
     5     4     5    2
     6     5     7    1
     7     6    75    1
     8     6    76    1
     9     6    77    1
    10     7     9   am
    11     9    10    1
    12    10    11    2
    13    10    43    1
    14    11    14    1
    15    11    15    1
    16    12    13   ar
    17    12    27   ar
    18    12    43    1
    19    13    14    1
    20    13    30   ar
    21    14    17    2
    22    15    16    1
    23    16    17    1
    24    16    18    1
    25    16    22    1
    26    18    19    1
    27    19    20    1
    28    20    21    1
    29    21    22    1
    30    23    24    1
    31    23    88    1
    32    23    89    1
    33    24    25    1
    34    24    26    1
    35    24    90    1
    36    25    91    1
    37    25    92    1
    38    25    93    1
    39    26    94    1
    40    26    95    1
    41    26    96    1
    42    27    28   ar
    43    28    29   ar
    44    29    30   ar
    45    29    31    1
    46    30    33    1
    47    31    32    1
    48    32    33    1
    49    32    35    1
    50    34    97    1
    51    34    98    1
    52    34    99    1
    53    35    61    1
    54    36    37    1
    55    36    60    1
    56    37    38    1
    57    38    39    1
    58    39    40    1
    59    40    41    1
    60    41    42    1
    61    45   100    1
    62    47   101    1
    63    47   102    1
    64    47   103    1
    65    48   104    1
    66    49   105    1
    67    49   106    1
    68    49   107    1
    69    50   108    1
    70    51    59    1
    71    52   109    1
    72    52   110    1
    73    52   111    1
    74    53    54    1
    75    54    55    2
    76    54    56    1
    77    56   112    1
    78    56   113    1
    79    56   114    1
    80    57   115    1
    81    57   116    1
    82    57   117    1
    83    58   118    1
    84    58   119    1
    85    58   120    1
    86    59   121    1
    87    59   122    1
    88    59   123    1
    89    60    61    2
    90     1    47    1
    91     1    62    1
    92     2    63    1
    93     3    64    1
    94     4    65    1
    95     5     6    1
    96     7     8    2
    97     9    78    1
    98    15    79    1
    99    18    80    1
   100    18    81    1
   101    19    82    1
   102    19    83    1
   103    20    23    1
   104    21    84    1
   105    21    85    1
   106    22    86    1
   107    22    87    1
   108    27    45    1
   109    28    34    1
   110    32    58    1
   111    33    46    2
   112    36    51    1
   113    36    66    1
   114    37    52    1
   115    37    67    1
   116    38    53    1
   117    38    68    1
   118    42    48    1
   119    42    72    1
   120    43    44    2
   121    60    73    1
   122    61    74    1
   123    39    69    1
   124    39    57    1
   125    40    70    1
   126    40    50    1
   127    41    71    1
   128    41    49    1
