@<TRIPOS>MOLECULE
*****
 123 128 0 0 0
SMALL
GASTEIGER

@<TRIPOS>ATOM
     1 C         -0.473138   -0.096772   -5.443872 C.3        1 UNL1     0.0009
     2 C         -1.595514   -0.50004   -6.863267 C.2        1 UNL1     -0.0787
     3 C         -1.970152   -1.365567   -7.9617 C.2        1 UNL1     -0.0649
     4 C         -3.335762   -1.253084   -8.956091 C.2        1 UNL1     -0.0542
     5 C         -4.185425   -1.955996   -9.84551 C.2        1 UNL1     0.0115
     6 C         -4.350402   -3.277787   -10.644869 C.3        1 UNL1     -0.0348
     7 C         -5.638559   -1.355537   -10.169298 C.2        1 UNL1     0.2441
     8 O         -5.897264   -0.762479   -11.207508 O.2        1 UNL1     -0.2702
     9 N         -6.658744   -1.781652   -9.301081 N.am        1 UNL1     -0.2772
     10 C         -6.737952   -0.94941   -8.208186 C.2        1 UNL1     0.1049
     11 C         -5.889535   -1.195574   -7.226445 C.2        1 UNL1     0.0801
     12 C         -6.852437   1.462841   -7.556057 C.ar        1 UNL1     0.0753
     13 C         -5.780684   1.187328   -6.648287 C.ar        1 UNL1     0.0305
     14 C         -5.354208   -0.180267   -6.360447 C.2        1 UNL1     0.0924
     15 N         -5.092516   -2.257872   -7.019538 N.pl3        1 UNL1     -0.3170
     16 C         -4.496812   -2.113342   -5.717808 C.3        1 UNL1     0.1275
     17 N         -4.457399   -0.622921   -5.483681 N.2        1 UNL1     -0.2557
     18 C         -5.487112   -2.675477   -4.70242 C.3        1 UNL1     0.0016
     19 C         -5.816301   -4.109251   -5.086497 C.3        1 UNL1     0.0026
     20 N         -4.583511   -4.884529   -5.100652 N.3        1 UNL1     -0.3018
     21 C         -3.544696   -4.384117   -6.003325 C.3        1 UNL1     0.0026
     22 C         -3.226261   -2.944327   -5.596511 C.3        1 UNL1     0.0016
     23 C         -4.816802   -6.313782   -5.159431 C.3        1 UNL1     0.0012
     24 C         -5.401114   -6.819235   -3.830953 C.3        1 UNL1     -0.0339
     25 C         -6.780049   -7.468396   -4.0339 C.3        1 UNL1     -0.0615
     26 C         -4.426696   -7.773858   -3.163135 C.3        1 UNL1     -0.0615
     27 C         -7.332986   2.758093   -7.733574 C.ar        1 UNL1     0.1347
     28 C         -6.850119   3.848633   -7.032422 C.ar        1 UNL1     0.0342
     29 C         -5.762515   3.561255   -6.180545 C.ar        1 UNL1     0.1435
     30 C         -5.246755   2.274658   -6.019677 C.ar        1 UNL1     0.0774
     31 O         -5.253385   4.495453   -5.348038 O.3        1 UNL1     -0.4436
     32 C         -4.538383   3.74507   -4.354775 C.3        1 UNL1     0.3143
     33 C         -4.212774   2.421382   -5.016621 C.2        1 UNL1     0.2504
     34 C         -7.478283   5.213577   -6.983054 C.3        1 UNL1     -0.0327
     35 O         -3.292638   4.416149   -4.128883 O.2        1 UNL1     -0.4528
     36 C         -2.370321   3.709668   -0.515255 C.3        1 UNL1     0.0854
     37 C         -2.172633   2.323004   0.209732 C.3        1 UNL1     0.0236
     38 C         -0.756334   2.137316   0.938676 C.3        1 UNL1     0.1131
     39 C         0.579839   2.432136   0.144954 C.3        1 UNL1     0.0200
     40 C         0.765643   1.898205   -1.424388 C.3        1 UNL1     0.0661
     41 C         0.472034   0.322239   -1.979127 C.3        1 UNL1     0.0091
     42 C         -0.129128   -0.273798   -3.606624 C.3        1 UNL1     0.0661
     43 C         -7.49521   0.310811   -8.235711 C.2        1 UNL1     0.2131
     44 O         -8.619507   0.346208   -8.702015 O.2        1 UNL1     -0.2851
     45 O         -8.347497   2.94711   -8.669778 O.3        1 UNL1     -0.5056
     46 O         -3.293877   1.668275   -4.783575 O.2        1 UNL1     -0.2836
     47 C         0.882196   0.450619   -5.966764 C.3        1 UNL1     -0.0566
     48 O         0.910664   -1.323399   -3.734247 O.3        1 UNL1     -0.3909
     49 C         -0.300893   -0.431808   -0.920122 C.3        1 UNL1     -0.0577
     50 O         0.23942   2.838346   -2.339236 O.3        1 UNL1     -0.3910
     51 O         -1.230702   4.536659   -0.584436 O.3        1 UNL1     -0.3753
     52 C         -2.867513   1.156632   -0.56594 C.3        1 UNL1     -0.0564
     53 O         -0.722059   0.985217   1.899831 O.3        1 UNL1     -0.4608
     54 C         0.345934   0.151005   2.103329 C.2        1 UNL1     0.3042
     55 O         0.836467   -0.643371   1.301966 O.2        1 UNL1     -0.2512
     56 C         0.982454   0.307709   3.454994 C.3        1 UNL1     0.0332
     57 C         1.017155   3.934164   0.477883 C.3        1 UNL1     -0.0567
     58 C         -5.532579   3.49292   -3.197397 C.3        1 UNL1     0.0210
     59 C         -1.267772   5.68077   0.267327 C.3        1 UNL1     0.0372
     60 C         -2.923591   3.625006   -1.894344 C.2        1 UNL1     -0.0208
     61 C         -2.55666   4.251759   -3.012953 C.2        1 UNL1     0.0882
     62 H         -1.098688   0.776308   -5.222222 H        1 UNL1     0.0365
     63 H         -2.248433   0.375268   -6.861576 H        1 UNL1     0.0576
     64 H         -1.454569   -2.310428   -8.147497 H        1 UNL1     0.0615
     65 H         -3.725491   -0.252244   -8.751361 H        1 UNL1     0.0622
     66 H         -3.132161   4.228173   0.083743 H        1 UNL1     0.0645
     67 H         -2.859038   2.371514   1.072898 H        1 UNL1     0.0362
     68 H         -0.830816   2.936659   1.691687 H        1 UNL1     0.0741
     69 H         1.402474   1.951844   0.657788 H        1 UNL1     0.0359
     70 H         1.863251   1.994181   -1.529768 H        1 UNL1     0.0600
     71 H         1.483011   -0.115159   -1.862656 H        1 UNL1     0.0348
     72 H         0.247434   0.745248   -3.7771 H        1 UNL1     0.0602
     73 H         -3.809956   3.040717   -1.879799 H        1 UNL1     0.0628
     74 H         -1.633465   4.821043   -3.126374 H        1 UNL1     0.1022
     75 H         -3.407548   -3.527281   -11.188757 H        1 UNL1     0.0279
     76 H         -4.529734   -4.178248   -10.061706 H        1 UNL1     0.0279
     77 H         -5.062976   -3.185094   -11.477544 H        1 UNL1     0.0279
     78 H         -6.448412   -2.717046   -8.95921 H        1 UNL1     0.1553
     79 H         -5.227268   -3.149441   -7.459854 H        1 UNL1     0.1484
     80 H         -5.042446   -2.621008   -3.701385 H        1 UNL1     0.0317
     81 H         -6.401297   -2.072963   -4.672517 H        1 UNL1     0.0317
     82 H         -6.328858   -4.162984   -6.058254 H        1 UNL1     0.0428
     83 H         -6.525103   -4.490129   -4.350575 H        1 UNL1     0.0428
     84 H         -2.602055   -4.936132   -5.936107 H        1 UNL1     0.0428
     85 H         -3.837159   -4.482978   -7.057844 H        1 UNL1     0.0428
     86 H         -2.375725   -2.657994   -6.186926 H        1 UNL1     0.0317
     87 H         -2.841625   -2.921459   -4.56956 H        1 UNL1     0.0317
     88 H         -5.544657   -6.508475   -5.957939 H        1 UNL1     0.0429
     89 H         -3.899608   -6.857111   -5.420817 H        1 UNL1     0.0429
     90 H         -5.511372   -5.973343   -3.142097 H        1 UNL1     0.0308
     91 H         -7.21784   -7.180221   -4.994315 H        1 UNL1     0.0233
     92 H         -6.70517   -8.557306   -3.986198 H        1 UNL1     0.0233
     93 H         -7.497275   -7.176884   -3.257085 H        1 UNL1     0.0233
     94 H         -4.972966   -8.561127   -2.632444 H        1 UNL1     0.0233
     95 H         -3.795233   -8.251491   -3.917512 H        1 UNL1     0.0233
     96 H         -3.786666   -7.253259   -2.445285 H        1 UNL1     0.0233
     97 H         -7.729178   5.510209   -5.969007 H        1 UNL1     0.0280
     98 H         -6.806317   5.99249   -7.366476 H        1 UNL1     0.0280
     99 H         -8.403233   5.216061   -7.582684 H        1 UNL1     0.0280
     100 H         -8.184683   2.552677   -9.508549 H        1 UNL1     0.2922
     101 H         0.922217   1.530321   -5.824297 H        1 UNL1     0.0236
     102 H         1.09036   0.166118   -6.997642 H        1 UNL1     0.0236
     103 H         1.73692   0.060287   -5.389458 H        1 UNL1     0.0236
     104 H         1.406198   -1.35158   -2.89245 H        1 UNL1     0.2098
     105 H         -1.380807   -0.333075   -0.996605 H        1 UNL1     0.0234
     106 H         -0.023978   -1.480657   -0.814482 H        1 UNL1     0.0234
     107 H         0.0   0.0   0.0 H        1 UNL1     0.0234
     108 H         0.987013   3.179252   -2.867115 H        1 UNL1     0.2098
     109 H         -3.952972   1.304134   -0.653879 H        1 UNL1     0.0234
     110 H         -2.439339   0.985264   -1.55944 H        1 UNL1     0.0234
     111 H         -2.738941   0.195145   -0.051198 H        1 UNL1     0.0234
     112 H         1.709699   1.124962   3.43139 H        1 UNL1     0.0342
     113 H         0.243934   0.464435   4.239767 H        1 UNL1     0.0342
     114 H         1.524657   -0.618951   3.68841 H        1 UNL1     0.0342
     115 H         2.037615   3.982308   0.882272 H        1 UNL1     0.0234
     116 H         0.971008   4.610102   -0.378287 H        1 UNL1     0.0234
     117 H         0.439854   4.388092   1.301663 H        1 UNL1     0.0234
     118 H         -5.268268   4.06608   -2.291508 H        1 UNL1     0.0309
     119 H         -6.570859   3.70956   -3.468033 H        1 UNL1     0.0309
     120 H         -5.519956   2.453605   -2.851319 H        1 UNL1     0.0309
     121 H         -0.855517   5.386933   1.232243 H        1 UNL1     0.0524
     122 H         -0.651328   6.50973   -0.118494 H        1 UNL1     0.0524
     123 H         -2.290308   6.027618   0.386534 H        1 UNL1     0.0524
@<TRIPOS>BOND
     1     1     2    1
     2     1    42    1
     3     2     3    2
     4     3     4    1
     5     4     5    2
     6     5     7    1
     7     6    75    1
     8     6    76    1
     9     6    77    1
    10     7     9   am
    11     9    10    1
    12    10    11    2
    13    10    43    1
    14    11    14    1
    15    11    15    1
    16    12    13   ar
    17    12    27   ar
    18    12    43    1
    19    13    14    1
    20    13    30   ar
    21    14    17    2
    22    15    16    1
    23    16    17    1
    24    16    18    1
    25    16    22    1
    26    18    19    1
    27    19    20    1
    28    20    21    1
    29    21    22    1
    30    23    24    1
    31    23    88    1
    32    23    89    1
    33    24    25    1
    34    24    26    1
    35    24    90    1
    36    25    91    1
    37    25    92    1
    38    25    93    1
    39    26    94    1
    40    26    95    1
    41    26    96    1
    42    27    28   ar
    43    28    29   ar
    44    29    30   ar
    45    29    31    1
    46    30    33    1
    47    31    32    1
    48    32    33    1
    49    32    35    1
    50    34    97    1
    51    34    98    1
    52    34    99    1
    53    35    61    1
    54    36    37    1
    55    36    60    1
    56    37    38    1
    57    38    39    1
    58    39    40    1
    59    40    41    1
    60    41    42    1
    61    45   100    1
    62    47   101    1
    63    47   102    1
    64    47   103    1
    65    48   104    1
    66    49   105    1
    67    49   106    1
    68    49   107    1
    69    50   108    1
    70    51    59    1
    71    52   109    1
    72    52   110    1
    73    52   111    1
    74    53    54    1
    75    54    55    2
    76    54    56    1
    77    56   112    1
    78    56   113    1
    79    56   114    1
    80    57   115    1
    81    57   116    1
    82    57   117    1
    83    58   118    1
    84    58   119    1
    85    58   120    1
    86    59   121    1
    87    59   122    1
    88    59   123    1
    89    60    61    2
    90     1    47    1
    91     1    62    1
    92     2    63    1
    93     3    64    1
    94     4    65    1
    95     5     6    1
    96     7     8    2
    97     9    78    1
    98    15    79    1
    99    18    80    1
   100    18    81    1
   101    19    82    1
   102    19    83    1
   103    20    23    1
   104    21    84    1
   105    21    85    1
   106    22    86    1
   107    22    87    1
   108    27    45    1
   109    28    34    1
   110    32    58    1
   111    33    46    2
   112    36    51    1
   113    36    66    1
   114    37    52    1
   115    37    67    1
   116    38    53    1
   117    38    68    1
   118    42    48    1
   119    42    72    1
   120    43    44    2
   121    60    73    1
   122    61    74    1
   123    39    69    1
   124    39    57    1
   125    40    70    1
   126    40    50    1
   127    41    71    1
   128    41    49    1
