@<TRIPOS>MOLECULE
*****
 123 128 0 0 0
SMALL
GASTEIGER

@<TRIPOS>ATOM
     1 C         2.442744   -4.304344   -1.177428 C.3        1 UNL1     0.0009
     2 C         2.299984   -6.150633   -1.088706 C.2        1 UNL1     -0.0787
     3 C         2.440541   -7.387206   -0.348991 C.2        1 UNL1     -0.0649
     4 C         1.985158   -8.945193   -0.830303 C.2        1 UNL1     -0.0542
     5 C         1.673979   -10.253542   -0.384803 C.2        1 UNL1     0.0115
     6 C         1.693938   -11.199404   0.847377 C.3        1 UNL1     -0.0348
     7 C         0.87736   -11.240381   -1.368945 C.2        1 UNL1     0.2441
     8 O         1.422835   -12.138547   -1.995269 O.2        1 UNL1     -0.2702
     9 N         -0.522844   -11.172853   -1.263973 N.am        1 UNL1     -0.2772
     10 C         -1.020806   -10.200737   -2.100841 C.2        1 UNL1     0.1049
     11 C         -0.991991   -8.964003   -1.638368 C.2        1 UNL1     0.0801
     12 C         -0.910642   -9.363775   -4.455558 C.ar        1 UNL1     0.0753
     13 C         -0.672283   -8.066293   -3.900279 C.ar        1 UNL1     0.0305
     14 C         -0.836487   -7.803147   -2.472399 C.2        1 UNL1     0.0924
     15 N         -0.747942   -8.511641   -0.39646 N.pl3        1 UNL1     -0.3170
     16 C         -1.007999   -7.096544   -0.385251 C.3        1 UNL1     0.1275
     17 N         -0.756111   -6.654813   -1.806219 N.2        1 UNL1     -0.2557
     18 C         -2.503263   -6.913498   -0.143629 C.3        1 UNL1     0.0016
     19 C         -2.879452   -7.631144   1.14286 C.3        1 UNL1     0.0026
     20 N         -2.099298   -7.069683   2.237004 N.3        1 UNL1     -0.3018
     21 C         -0.646742   -7.143338   2.06664 C.3        1 UNL1     0.0026
     22 C         -0.290699   -6.412319   0.770978 C.3        1 UNL1     0.0016
     23 C         -2.589209   -7.468301   3.541509 C.3        1 UNL1     0.0012
     24 C         -2.006403   -8.832783   3.941863 C.3        1 UNL1     -0.0339
     25 C         -0.794777   -9.204122   3.071158 C.3        1 UNL1     -0.0615
     26 C         -1.654835   -8.835636   5.419419 C.3        1 UNL1     -0.0615
     27 C         -0.870014   -9.578712   -5.831156 C.ar        1 UNL1     0.1347
     28 C         -0.641287   -8.56977   -6.749726 C.ar        1 UNL1     0.0342
     29 C         -0.360928   -7.310657   -6.177715 C.ar        1 UNL1     0.1435
     30 C         -0.362431   -7.088154   -4.800141 C.ar        1 UNL1     0.0774
     31 O         -0.225745   -6.204216   -6.940946 O.3        1 UNL1     -0.4436
     32 C         -0.428252   -5.110581   -6.033297 C.3        1 UNL1     0.3143
     33 C         -0.107591   -5.669464   -4.661788 C.2        1 UNL1     0.2504
     34 C         -0.830684   -8.672404   -8.237575 C.3        1 UNL1     -0.0327
     35 O         0.569215   -4.12421   -6.325503 O.2        1 UNL1     -0.4528
     36 C         -0.986703   -0.776917   -5.440725 C.3        1 UNL1     0.0854
     37 C         -1.587668   -0.289744   -4.066306 C.3        1 UNL1     0.0236
     38 C         -0.95597   1.069622   -3.496371 C.3        1 UNL1     0.1131
     39 C         0.614909   1.219895   -3.386707 C.3        1 UNL1     0.0200
     40 C         1.544543   -0.033859   -2.798217 C.3        1 UNL1     0.0661
     41 C         1.261215   -0.892155   -1.362716 C.3        1 UNL1     0.0091
     42 C         1.598317   -2.644628   -0.937744 C.3        1 UNL1     0.0661
     43 C         -1.29088   -10.454484   -3.523875 C.2        1 UNL1     0.2131
     44 O         -1.884595   -11.459466   -3.870647 O.2        1 UNL1     -0.2851
     45 O         -1.068096   -10.880474   -6.286805 O.3        1 UNL1     -0.5056
     46 O         0.290115   -5.079857   -3.681968 O.2        1 UNL1     -0.2836
     47 C         3.931478   -3.884264   -1.308523 C.3        1 UNL1     -0.0566
     48 O         2.228742   -2.325986   0.366153 O.3        1 UNL1     -0.3909
     49 C         -0.136568   -0.581108   -0.875946 C.3        1 UNL1     -0.0577
     50 O         1.893617   -0.928552   -3.83523 O.3        1 UNL1     -0.3910
     51 O         0.137433   -0.066065   -5.908098 O.3        1 UNL1     -0.3753
     52 C         -1.955953   -1.489984   -3.134244 C.3        1 UNL1     -0.0564
     53 O         -1.765088   1.693133   -2.396876 O.3        1 UNL1     -0.4608
     54 C         -1.426248   1.70529   -1.069107 C.2        1 UNL1     0.3042
     55 O         -1.478545   0.765822   -0.276326 O.2        1 UNL1     -0.2512
     56 C         -0.885071   3.025317   -0.598607 C.3        1 UNL1     0.0332
     57 C         1.121254   1.967166   -4.707076 C.3        1 UNL1     -0.0567
     58 C         -1.934821   -4.766598   -6.092073 C.3        1 UNL1     0.0210
     59 C         1.213022   -0.881946   -6.369956 C.3        1 UNL1     0.0372
     60 C         -0.634292   -2.221875   -5.496071 C.2        1 UNL1     -0.0208
     61 C         0.452183   -2.82893   -5.975446 C.2        1 UNL1     0.0882
     62 H         2.037121   -4.34109   -2.195677 H        1 UNL1     0.0365
     63 H         2.001645   -6.381242   -2.113539 H        1 UNL1     0.0576
     64 H         2.722633   -7.394097   0.706227 H        1 UNL1     0.0615
     65 H         1.803266   -8.84363   -1.903654 H        1 UNL1     0.0622
     66 H         -1.802892   -0.637922   -6.16361 H        1 UNL1     0.0645
     67 H         -2.611729   0.034099   -4.321226 H        1 UNL1     0.0362
     68 H         -1.260342   1.762986   -4.295199 H        1 UNL1     0.0741
     69 H         0.840427   2.024895   -2.700031 H        1 UNL1     0.0359
     70 H         2.481748   0.511534   -2.576287 H        1 UNL1     0.0600
     71 H         1.874046   -0.297067   -0.657544 H        1 UNL1     0.0348
     72 H         2.234573   -2.415053   -1.804802 H        1 UNL1     0.0602
     73 H         -1.471631   -2.797615   -5.188444 H        1 UNL1     0.0628
     74 H         1.372085   -2.315208   -6.256708 H        1 UNL1     0.1022
     75 H         1.546598   -10.6187   1.789771 H        1 UNL1     0.0279
     76 H         0.900145   -11.940962   0.902629 H        1 UNL1     0.0279
     77 H         2.682253   -11.649261   1.022202 H        1 UNL1     0.0279
     78 H         -0.782763   -10.920664   -0.312699 H        1 UNL1     0.1553
     79 H         -0.810256   -9.082438   0.426486 H        1 UNL1     0.1484
     80 H         -2.727281   -5.841543   -0.084506 H        1 UNL1     0.0317
     81 H         -3.086465   -7.30983   -0.981751 H        1 UNL1     0.0317
     82 H         -2.72505   -8.717301   1.063269 H        1 UNL1     0.0428
     83 H         -3.949863   -7.489377   1.295084 H        1 UNL1     0.0428
     84 H         -0.085838   -6.644297   2.862979 H        1 UNL1     0.0428
     85 H         -0.283983   -8.180143   2.09419 H        1 UNL1     0.0428
     86 H         0.782478   -6.370739   0.747502 H        1 UNL1     0.0317
     87 H         -0.584023   -5.357861   0.842917 H        1 UNL1     0.0317
     88 H         -2.259944   -6.719261   4.273506 H        1 UNL1     0.0429
     89 H         -3.686411   -7.4832   3.567938 H        1 UNL1     0.0429
     90 H         -2.776307   -9.603198   3.815682 H        1 UNL1     0.0308
     91 H         -0.454621   -10.223469   3.276899 H        1 UNL1     0.0233
     92 H         -1.039723   -9.11506   2.010178 H        1 UNL1     0.0233
     93 H         0.062211   -8.541847   3.243779 H        1 UNL1     0.0233
     94 H         -0.567222   -8.849041   5.548853 H        1 UNL1     0.0233
     95 H         -2.040018   -7.930306   5.896885 H        1 UNL1     0.0233
     96 H         -2.074112   -9.708473   5.927682 H        1 UNL1     0.0233
     97 H         -0.854155   -9.704271   -8.575109 H        1 UNL1     0.0280
     98 H         -1.779052   -8.227226   -8.565707 H        1 UNL1     0.0280
     99 H         -0.00123   -8.15952   -8.751433 H        1 UNL1     0.0280
     100 H         -0.43789   -11.173316   -6.921396 H        1 UNL1     0.2922
     101 H         4.566875   -4.626926   -0.826464 H        1 UNL1     0.0236
     102 H         4.126896   -2.877763   -0.940081 H        1 UNL1     0.0236
     103 H         4.266478   -3.86891   -2.359109 H        1 UNL1     0.0236
     104 H         2.840901   -3.055898   0.584006 H        1 UNL1     0.2098
     105 H         -0.735178   0.001455   -1.571719 H        1 UNL1     0.0234
     106 H         -0.699657   -1.445951   -0.525367 H        1 UNL1     0.0234
     107 H         0.0   0.0   0.0 H        1 UNL1     0.0234
     108 H         1.062154   -1.28676   -4.201459 H        1 UNL1     0.2098
     109 H         -1.193912   -1.666246   -2.362274 H        1 UNL1     0.0234
     110 H         -2.938202   -1.382303   -2.661661 H        1 UNL1     0.0234
     111 H         -2.032636   -2.430241   -3.696369 H        1 UNL1     0.0234
     112 H         -1.399723   3.842957   -1.112362 H        1 UNL1     0.0342
     113 H         -0.957699   3.135897   0.482291 H        1 UNL1     0.0342
     114 H         0.179029   3.075391   -0.867582 H        1 UNL1     0.0342
     115 H         1.754943   1.317542   -5.326442 H        1 UNL1     0.0234
     116 H         0.315707   2.341822   -5.341723 H        1 UNL1     0.0234
     117 H         1.810509   2.804281   -4.501875 H        1 UNL1     0.0234
     118 H         -2.56963   -5.655753   -5.932613 H        1 UNL1     0.0309
     119 H         -2.225522   -3.986809   -5.380999 H        1 UNL1     0.0309
     120 H         -2.2459   -4.40795   -7.079346 H        1 UNL1     0.0309
     121 H         0.992695   -1.91033   -6.084929 H        1 UNL1     0.0524
     122 H         1.316008   -0.856482   -7.467582 H        1 UNL1     0.0524
     123 H         2.14835   -0.560604   -5.920518 H        1 UNL1     0.0524
@<TRIPOS>BOND
     1     1     2    1
     2     1    42    1
     3     2     3    2
     4     3     4    1
     5     4     5    2
     6     5     7    1
     7     6    75    1
     8     6    76    1
     9     6    77    1
    10     7     9   am
    11     9    10    1
    12    10    11    2
    13    10    43    1
    14    11    14    1
    15    11    15    1
    16    12    13   ar
    17    12    27   ar
    18    12    43    1
    19    13    14    1
    20    13    30   ar
    21    14    17    2
    22    15    16    1
    23    16    17    1
    24    16    18    1
    25    16    22    1
    26    18    19    1
    27    19    20    1
    28    20    21    1
    29    21    22    1
    30    23    24    1
    31    23    88    1
    32    23    89    1
    33    24    25    1
    34    24    26    1
    35    24    90    1
    36    25    91    1
    37    25    92    1
    38    25    93    1
    39    26    94    1
    40    26    95    1
    41    26    96    1
    42    27    28   ar
    43    28    29   ar
    44    29    30   ar
    45    29    31    1
    46    30    33    1
    47    31    32    1
    48    32    33    1
    49    32    35    1
    50    34    97    1
    51    34    98    1
    52    34    99    1
    53    35    61    1
    54    36    37    1
    55    36    60    1
    56    37    38    1
    57    38    39    1
    58    39    40    1
    59    40    41    1
    60    41    42    1
    61    45   100    1
    62    47   101    1
    63    47   102    1
    64    47   103    1
    65    48   104    1
    66    49   105    1
    67    49   106    1
    68    49   107    1
    69    50   108    1
    70    51    59    1
    71    52   109    1
    72    52   110    1
    73    52   111    1
    74    53    54    1
    75    54    55    2
    76    54    56    1
    77    56   112    1
    78    56   113    1
    79    56   114    1
    80    57   115    1
    81    57   116    1
    82    57   117    1
    83    58   118    1
    84    58   119    1
    85    58   120    1
    86    59   121    1
    87    59   122    1
    88    59   123    1
    89    60    61    2
    90     1    47    1
    91     1    62    1
    92     2    63    1
    93     3    64    1
    94     4    65    1
    95     5     6    1
    96     7     8    2
    97     9    78    1
    98    15    79    1
    99    18    80    1
   100    18    81    1
   101    19    82    1
   102    19    83    1
   103    20    23    1
   104    21    84    1
   105    21    85    1
   106    22    86    1
   107    22    87    1
   108    27    45    1
   109    28    34    1
   110    32    58    1
   111    33    46    2
   112    36    51    1
   113    36    66    1
   114    37    52    1
   115    37    67    1
   116    38    53    1
   117    38    68    1
   118    42    48    1
   119    42    72    1
   120    43    44    2
   121    60    73    1
   122    61    74    1
   123    39    69    1
   124    39    57    1
   125    40    70    1
   126    40    50    1
   127    41    71    1
   128    41    49    1
