@<TRIPOS>MOLECULE
*****
 123 128 0 0 0
SMALL
GASTEIGER

@<TRIPOS>ATOM
     1 C         5.166971   1.749703   0.490125 C.3        1 UNL1     0.0009
     2 C         6.60313   2.55659   -0.360414 C.2        1 UNL1     -0.0787
     3 C         7.88476   2.459048   -1.026714 C.2        1 UNL1     -0.0649
     4 C         8.761621   3.694773   -1.782 C.2        1 UNL1     -0.0542
     5 C         9.7812   3.988148   -2.720866 C.2        1 UNL1     0.0115
     6 C         10.909188   3.36342   -3.587284 C.3        1 UNL1     -0.0348
     7 C         9.875956   5.471748   -3.326623 C.2        1 UNL1     0.2441
     8 O         10.699806   6.293382   -2.948847 O.2        1 UNL1     -0.2702
     9 N         9.125211   5.679166   -4.496884 N.am        1 UNL1     -0.2772
     10 C         7.842536   6.065389   -4.182403 C.2        1 UNL1     0.1049
     11 C         6.99709   5.09363   -3.890642 C.2        1 UNL1     0.0801
     12 C         6.544353   7.670997   -2.770285 C.ar        1 UNL1     0.0753
     13 C         5.785733   6.542672   -2.323086 C.ar        1 UNL1     0.0305
     14 C         5.902698   5.237341   -2.969213 C.2        1 UNL1     0.0924
     15 N         7.119946   3.764764   -4.050486 N.pl3        1 UNL1     -0.3170
     16 C         5.85035   3.16514   -3.736112 C.3        1 UNL1     0.1275
     17 N         5.214132   4.11971   -2.755425 N.2        1 UNL1     -0.2557
     18 C         4.996975   3.224687   -4.999404 C.3        1 UNL1     0.0016
     19 C         5.751553   2.541365   -6.128684 C.3        1 UNL1     0.0026
     20 N         6.022164   1.16312   -5.743666 N.3        1 UNL1     -0.3018
     21 C         6.786061   1.002242   -4.504735 C.3        1 UNL1     0.0026
     22 C         6.007614   1.691991   -3.383057 C.3        1 UNL1     0.0016
     23 C         6.466405   0.344271   -6.853972 C.3        1 UNL1     0.0012
     24 C         5.310617   0.095054   -7.835706 C.3        1 UNL1     -0.0339
     25 C         5.345623   1.087832   -9.009258 C.3        1 UNL1     -0.0615
     26 C         5.339848   -1.344181   -8.319988 C.3        1 UNL1     -0.0615
     27 C         6.339625   8.938359   -2.229915 C.ar        1 UNL1     0.1347
     28 C         5.380897   9.207181   -1.269382 C.ar        1 UNL1     0.0342
     29 C         4.67978   8.072329   -0.809263 C.ar        1 UNL1     0.1435
     30 C         4.899307   6.790619   -1.315472 C.ar        1 UNL1     0.0774
     31 O         3.639111   8.185209   0.044712 O.3        1 UNL1     -0.4436
     32 C         2.917655   6.952301   -0.097804 C.3        1 UNL1     0.3143
     33 C         3.930959   5.959706   -0.630891 C.2        1 UNL1     0.2504
     34 C         4.93393   10.572952   -0.827803 C.3        1 UNL1     -0.0327
     35 O         2.557658   6.514827   1.218354 O.2        1 UNL1     -0.4528
     36 C         -0.685114   4.582115   0.821941 C.3        1 UNL1     0.0854
     37 C         -0.990505   3.321932   -0.075945 C.3        1 UNL1     0.0236
     38 C         -1.590449   2.06034   0.711579 C.3        1 UNL1     0.1131
     39 C         -0.864033   1.528889   2.012406 C.3        1 UNL1     0.0200
     40 C         0.797209   1.383698   2.05281 C.3        1 UNL1     0.0661
     41 C         1.756268   0.615696   0.8832 C.3        1 UNL1     0.0091
     42 C         3.463539   0.978933   0.318677 C.3        1 UNL1     0.0661
     43 C         7.493978   7.464095   -3.891741 C.2        1 UNL1     0.2131
     44 O         7.89336   8.362637   -4.60997 O.2        1 UNL1     -0.2851
     45 O         7.151468   9.973888   -2.688203 O.3        1 UNL1     -0.5056
     46 O         3.947274   4.756107   -0.500746 O.2        1 UNL1     -0.2836
     47 C         5.564028   1.319569   1.92794 C.3        1 UNL1     -0.0566
     48 O         3.912455   -0.432113   0.399545 O.3        1 UNL1     -0.3909
     49 C         0.921617   0.38356   -0.356544 C.3        1 UNL1     -0.0577
     50 O         1.397297   2.601492   2.445996 O.3        1 UNL1     -0.3910
     51 O         -0.80858   4.391693   2.213316 O.3        1 UNL1     -0.3753
     52 C         0.053506   3.162292   -1.228988 C.3        1 UNL1     -0.0564
     53 O         -2.193194   1.021685   -0.188544 O.3        1 UNL1     -0.4608
     54 C         -2.427169   -0.285294   0.150557 C.2        1 UNL1     0.3042
     55 O         -1.858029   -1.284071   -0.288036 O.2        1 UNL1     -0.2512
     56 C         -3.466703   -0.451724   1.222184 C.3        1 UNL1     0.0332
     57 C         -1.584684   2.19707   3.274297 C.3        1 UNL1     -0.0567
     58 C         1.841951   7.197708   -1.181393 C.3        1 UNL1     0.0210
     59 C         -1.121732   5.570246   2.954135 C.3        1 UNL1     0.0372
     60 C         0.643644   5.211615   0.591092 C.2        1 UNL1     -0.0208
     61 C         1.556847   5.646606   1.460338 C.2        1 UNL1     0.0882
     62 H         4.690867   2.733724   0.578098 H        1 UNL1     0.0365
     63 H         6.336692   3.610276   -0.254457 H        1 UNL1     0.0576
     64 H         8.342538   1.492414   -1.248449 H        1 UNL1     0.0615
     65 H         8.27448   4.609882   -1.434508 H        1 UNL1     0.0622
     66 H         -1.430061   5.328635   0.512413 H        1 UNL1     0.0645
     67 H         -1.856379   3.631417   -0.686715 H        1 UNL1     0.0362
     68 H         -2.537469   2.496825   1.063939 H        1 UNL1     0.0741
     69 H         -1.195248   0.517617   2.20743 H        1 UNL1     0.0359
     70 H         0.909503   0.722943   2.933635 H        1 UNL1     0.0600
     71 H         1.800258   -0.405678   1.309602 H        1 UNL1     0.0348
     72 H         3.357963   1.466615   1.298644 H        1 UNL1     0.0602
     73 H         0.761057   5.409419   -0.44541 H        1 UNL1     0.0628
     74 H         1.539801   5.435393   2.530074 H        1 UNL1     0.1022
     75 H         10.953979   2.258073   -3.434848 H        1 UNL1     0.0279
     76 H         10.79508   3.446732   -4.665758 H        1 UNL1     0.0279
     77 H         11.914333   3.668181   -3.260935 H        1 UNL1     0.0279
     78 H         9.063181   4.809471   -5.022107 H        1 UNL1     0.1553
     79 H         7.785049   3.337235   -4.668377 H        1 UNL1     0.1484
     80 H         4.035885   2.733441   -4.80511 H        1 UNL1     0.0317
     81 H         4.770022   4.261527   -5.269784 H        1 UNL1     0.0317
     82 H         6.681992   3.072999   -6.376796 H        1 UNL1     0.0428
     83 H         5.126009   2.596821   -7.020127 H        1 UNL1     0.0428
     84 H         6.906743   -0.04084   -4.196146 H        1 UNL1     0.0428
     85 H         7.816027   1.370555   -4.608805 H        1 UNL1     0.0428
     86 H         6.524479   1.441282   -2.475321 H        1 UNL1     0.0317
     87 H         5.028329   1.214073   -3.257793 H        1 UNL1     0.0317
     88 H         7.262124   0.886511   -7.381326 H        1 UNL1     0.0429
     89 H         6.899359   -0.601583   -6.503708 H        1 UNL1     0.0429
     90 H         4.357783   0.21365   -7.306315 H        1 UNL1     0.0308
     91 H         6.298576   1.037537   -9.54447 H        1 UNL1     0.0233
     92 H         4.530479   0.88803   -9.708706 H        1 UNL1     0.0233
     93 H         5.219402   2.126748   -8.681299 H        1 UNL1     0.0233
     94 H         4.645033   -1.47538   -9.156562 H        1 UNL1     0.0233
     95 H         6.343262   -1.599681   -8.671901 H        1 UNL1     0.0233
     96 H         5.05741   -2.038866   -7.523993 H        1 UNL1     0.0233
     97 H         4.134621   10.52276   -0.094444 H        1 UNL1     0.0280
     98 H         5.744336   11.139452   -0.350755 H        1 UNL1     0.0280
     99 H         4.568563   11.14122   -1.698822 H        1 UNL1     0.0280
     100 H         6.684146   10.72508   -3.00905 H        1 UNL1     0.2922
     101 H         4.701527   0.885484   2.43323 H        1 UNL1     0.0236
     102 H         6.014875   2.124724   2.507116 H        1 UNL1     0.0236
     103 H         6.320456   0.517069   1.926115 H        1 UNL1     0.0236
     104 H         4.332073   -0.558538   1.27299 H        1 UNL1     0.2098
     105 H         0.708524   1.282631   -0.929322 H        1 UNL1     0.0234
     106 H         1.290902   -0.40405   -1.013222 H        1 UNL1     0.0234
     107 H         0.0   -0.0   0.0 H        1 UNL1     0.0234
     108 H         1.198902   3.259863   1.752486 H        1 UNL1     0.2098
     109 H         1.078529   3.048857   -0.849287 H        1 UNL1     0.0234
     110 H         -0.179041   2.335479   -1.908727 H        1 UNL1     0.0234
     111 H         0.074221   4.045436   -1.881347 H        1 UNL1     0.0234
     112 H         -3.598731   -1.513613   1.450893 H        1 UNL1     0.0342
     113 H         -3.223325   0.114047   2.120246 H        1 UNL1     0.0342
     114 H         -4.421597   -0.069082   0.836276 H        1 UNL1     0.0342
     115 H         -2.654236   1.948535   3.312735 H        1 UNL1     0.0234
     116 H         -1.147753   1.916929   4.23485 H        1 UNL1     0.0234
     117 H         -1.623552   3.298942   3.226235 H        1 UNL1     0.0234
     118 H         0.940322   7.682796   -0.768162 H        1 UNL1     0.0309
     119 H         2.210399   7.787495   -2.026734 H        1 UNL1     0.0309
     120 H         1.454514   6.265911   -1.607717 H        1 UNL1     0.0309
     121 H         -0.3009   6.273666   2.817048 H        1 UNL1     0.0524
     122 H         -2.041792   6.059261   2.59304 H        1 UNL1     0.0524
     123 H         -1.239199   5.331954   4.007469 H        1 UNL1     0.0524
@<TRIPOS>BOND
     1     1     2    1
     2     1    42    1
     3     2     3    2
     4     3     4    1
     5     4     5    2
     6     5     7    1
     7     6    75    1
     8     6    76    1
     9     6    77    1
    10     7     9   am
    11     9    10    1
    12    10    11    2
    13    10    43    1
    14    11    14    1
    15    11    15    1
    16    12    13   ar
    17    12    27   ar
    18    12    43    1
    19    13    14    1
    20    13    30   ar
    21    14    17    2
    22    15    16    1
    23    16    17    1
    24    16    18    1
    25    16    22    1
    26    18    19    1
    27    19    20    1
    28    20    21    1
    29    21    22    1
    30    23    24    1
    31    23    88    1
    32    23    89    1
    33    24    25    1
    34    24    26    1
    35    24    90    1
    36    25    91    1
    37    25    92    1
    38    25    93    1
    39    26    94    1
    40    26    95    1
    41    26    96    1
    42    27    28   ar
    43    28    29   ar
    44    29    30   ar
    45    29    31    1
    46    30    33    1
    47    31    32    1
    48    32    33    1
    49    32    35    1
    50    34    97    1
    51    34    98    1
    52    34    99    1
    53    35    61    1
    54    36    37    1
    55    36    60    1
    56    37    38    1
    57    38    39    1
    58    39    40    1
    59    40    41    1
    60    41    42    1
    61    45   100    1
    62    47   101    1
    63    47   102    1
    64    47   103    1
    65    48   104    1
    66    49   105    1
    67    49   106    1
    68    49   107    1
    69    50   108    1
    70    51    59    1
    71    52   109    1
    72    52   110    1
    73    52   111    1
    74    53    54    1
    75    54    55    2
    76    54    56    1
    77    56   112    1
    78    56   113    1
    79    56   114    1
    80    57   115    1
    81    57   116    1
    82    57   117    1
    83    58   118    1
    84    58   119    1
    85    58   120    1
    86    59   121    1
    87    59   122    1
    88    59   123    1
    89    60    61    2
    90     1    47    1
    91     1    62    1
    92     2    63    1
    93     3    64    1
    94     4    65    1
    95     5     6    1
    96     7     8    2
    97     9    78    1
    98    15    79    1
    99    18    80    1
   100    18    81    1
   101    19    82    1
   102    19    83    1
   103    20    23    1
   104    21    84    1
   105    21    85    1
   106    22    86    1
   107    22    87    1
   108    27    45    1
   109    28    34    1
   110    32    58    1
   111    33    46    2
   112    36    51    1
   113    36    66    1
   114    37    52    1
   115    37    67    1
   116    38    53    1
   117    38    68    1
   118    42    48    1
   119    42    72    1
   120    43    44    2
   121    60    73    1
   122    61    74    1
   123    39    69    1
   124    39    57    1
   125    40    70    1
   126    40    50    1
   127    41    71    1
   128    41    49    1
