@<TRIPOS>MOLECULE
*****
 123 128 0 0 0
SMALL
GASTEIGER

@<TRIPOS>ATOM
     1 C         5.166489   1.760008   0.45716 C.3        1 UNL1     0.0009
     2 C         6.596017   2.568581   -0.402896 C.2        1 UNL1     -0.0787
     3 C         7.873816   2.472654   -1.076745 C.2        1 UNL1     -0.0649
     4 C         8.743824   3.709131   -1.838697 C.2        1 UNL1     -0.0542
     5 C         9.757212   4.003312   -2.78399 C.2        1 UNL1     0.0115
     6 C         10.881163   3.37968   -3.656423 C.3        1 UNL1     -0.0348
     7 C         9.845561   5.486378   -3.392018 C.2        1 UNL1     0.2441
     8 O         10.670117   6.309989   -3.020133 O.2        1 UNL1     -0.2702
     9 N         9.087438   5.691028   -4.558003 N.am        1 UNL1     -0.2772
     10 C         7.805947   6.075223   -4.236294 C.2        1 UNL1     0.1049
     11 C         6.964084   5.102228   -3.938351 C.2        1 UNL1     0.0801
     12 C         6.513233   7.680052   -2.818285 C.ar        1 UNL1     0.0753
     13 C         5.759419   6.550836   -2.365247 C.ar        1 UNL1     0.0305
     14 C         5.87496   5.244971   -3.010552 C.2        1 UNL1     0.0924
     15 N         7.088471   3.773408   -4.097391 N.pl3        1 UNL1     -0.3170
     16 C         5.821906   3.171782   -3.774727 C.3        1 UNL1     0.1275
     17 N         5.189781   4.126307   -2.791353 N.2        1 UNL1     -0.2557
     18 C         4.960874   3.228261   -5.032955 C.3        1 UNL1     0.0016
     19 C         5.709957   2.54503   -6.165942 C.3        1 UNL1     0.0026
     20 N         5.98545   1.167744   -5.780957 N.3        1 UNL1     -0.3018
     21 C         6.75705   1.009739   -4.546438 C.3        1 UNL1     0.0026
     22 C         5.98404   1.699342   -3.420917 C.3        1 UNL1     0.0016
     23 C         6.424571   0.34843   -6.892956 C.3        1 UNL1     0.0012
     24 C         5.263397   0.095909   -7.867463 C.3        1 UNL1     -0.0339
     25 C         5.610818   0.5651   -9.289861 C.3        1 UNL1     -0.0615
     26 C         4.87252   -1.371532   -7.842731 C.3        1 UNL1     -0.0615
     27 C         6.309369   8.947659   -2.278165 C.ar        1 UNL1     0.1347
     28 C         5.355905   9.215813   -1.31222 C.ar        1 UNL1     0.0342
     29 C         4.659682   8.080192   -0.846599 C.ar        1 UNL1     0.1435
     30 C         4.878577   6.798304   -1.352631 C.ar        1 UNL1     0.0774
     31 O         3.623935   8.192126   0.013461 O.3        1 UNL1     -0.4436
     32 C         2.903949   6.957708   -0.123306 C.3        1 UNL1     0.3143
     33 C         3.915902   5.966384   -0.661303 C.2        1 UNL1     0.2504
     34 C         4.909031   10.581262   -0.869552 C.3        1 UNL1     -0.0327
     35 O         2.552657   6.5211   1.195489 O.2        1 UNL1     -0.4528
     36 C         -0.688802   4.581876   0.820735 C.3        1 UNL1     0.0854
     37 C         -0.9972   3.320077   -0.073848 C.3        1 UNL1     0.0236
     38 C         -1.590055   2.058288   0.718713 C.3        1 UNL1     0.1131
     39 C         -0.854871   1.529713   2.015781 C.3        1 UNL1     0.0200
     40 C         0.806852   1.387671   2.046405 C.3        1 UNL1     0.0661
     41 C         1.76033   0.620096   0.871962 C.3        1 UNL1     0.0091
     42 C         3.463508   0.98586   0.296807 C.3        1 UNL1     0.0661
     43 C         7.456514   7.473613   -3.945168 C.2        1 UNL1     0.2131
     44 O         7.849905   8.372061   -4.666814 O.2        1 UNL1     -0.2851
     45 O         7.116512   9.984167   -2.742503 O.3        1 UNL1     -0.5056
     46 O         3.935251   4.762971   -0.529867 O.2        1 UNL1     -0.2836
     47 C         5.57295   1.332296   1.893068 C.3        1 UNL1     -0.0566
     48 O         3.915543   -0.42425   0.376616 O.3        1 UNL1     -0.3909
     49 C         0.91871   0.384955   -0.362493 C.3        1 UNL1     -0.0577
     50 O         1.407   2.607042   2.434582 O.3        1 UNL1     -0.3910
     51 O         -0.80358   4.392848   2.213045 O.3        1 UNL1     -0.3753
     52 C         0.040187   3.16104   -1.232935 C.3        1 UNL1     -0.0564
     53 O         -2.19623   1.01746   -0.176583 O.3        1 UNL1     -0.4608
     54 C         -2.394572   -0.297639   0.15373 C.2        1 UNL1     0.3042
     55 O         -1.720489   -1.265525   -0.196478 O.2        1 UNL1     -0.2512
     56 C         -3.544953   -0.514341   1.095207 C.3        1 UNL1     0.0332
     57 C         -1.569206   2.198021   3.281191 C.3        1 UNL1     -0.0567
     58 C         1.821321   7.199841   -1.200718 C.3        1 UNL1     0.0210
     59 C         -1.1145   5.57168   2.954362 C.3        1 UNL1     0.0372
     60 C         0.637369   5.213585   0.581206 C.2        1 UNL1     -0.0208
     61 C         1.554941   5.651295   1.444465 C.2        1 UNL1     0.0882
     62 H         4.689077   2.743241   0.546844 H        1 UNL1     0.0365
     63 H         6.328244   3.621891   -0.296564 H        1 UNL1     0.0576
     64 H         8.332069   1.506618   -1.300099 H        1 UNL1     0.0615
     65 H         8.257058   4.623735   -1.489353 H        1 UNL1     0.0622
     66 H         -1.436986   5.326642   0.514811 H        1 UNL1     0.0645
     67 H         -1.867293   3.627232   -0.67978 H        1 UNL1     0.0362
     68 H         -2.535764   2.493415   1.076233 H        1 UNL1     0.0741
     69 H         -1.183017   0.518054   2.213955 H        1 UNL1     0.0359
     70 H         0.925655   0.728156   2.927305 H        1 UNL1     0.0600
     71 H         1.808786   -0.400695   1.299274 H        1 UNL1     0.0348
     72 H         3.362886   1.474488   1.276824 H        1 UNL1     0.0602
     73 H         0.748205   5.410397   -0.456208 H        1 UNL1     0.0628
     74 H         1.544694   5.4413   2.514528 H        1 UNL1     0.1022
     75 H         10.877359   2.266821   -3.563869 H        1 UNL1     0.0279
     76 H         10.798507   3.525653   -4.731099 H        1 UNL1     0.0279
     77 H         11.888986   3.624246   -3.290116 H        1 UNL1     0.0279
     78 H         9.023895   4.820605   -5.081838 H        1 UNL1     0.1553
     79 H         7.750664   3.3464   -4.718758 H        1 UNL1     0.1484
     80 H         4.001887   2.735449   -4.832342 H        1 UNL1     0.0317
     81 H         4.730364   4.264359   -5.30317 H        1 UNL1     0.0317
     82 H         6.637898   3.07811   -6.420235 H        1 UNL1     0.0428
     83 H         5.078987   2.598278   -7.053686 H        1 UNL1     0.0428
     84 H         6.881531   -0.032755   -4.237371 H        1 UNL1     0.0428
     85 H         7.785683   1.379853   -4.657099 H        1 UNL1     0.0428
     86 H         6.506798   1.450659   -2.516003 H        1 UNL1     0.0317
     87 H         5.006419   1.219745   -3.289238 H        1 UNL1     0.0317
     88 H         7.216102   0.891538   -7.425692 H        1 UNL1     0.0429
     89 H         6.861386   -0.596205   -6.544197 H        1 UNL1     0.0429
     90 H         4.379927   0.647029   -7.524009 H        1 UNL1     0.0308
     91 H         6.610015   0.231668   -9.585718 H        1 UNL1     0.0233
     92 H         4.879721   0.18984   -10.009781 H        1 UNL1     0.0233
     93 H         5.599316   1.657758   -9.38368 H        1 UNL1     0.0233
     94 H         4.262592   -1.614765   -8.719465 H        1 UNL1     0.0233
     95 H         5.768812   -1.997472   -7.871428 H        1 UNL1     0.0233
     96 H         4.299353   -1.61673   -6.944219 H        1 UNL1     0.0233
     97 H         4.065625   10.532649   -0.187252 H        1 UNL1     0.0280
     98 H         5.699492   11.121406   -0.332271 H        1 UNL1     0.0280
     99 H         4.608466   11.174264   -1.748816 H        1 UNL1     0.0280
     100 H         6.649531   10.761724   -2.993413 H        1 UNL1     0.2922
     101 H         4.691281   1.001505   2.441605 H        1 UNL1     0.0236
     102 H         6.123386   2.103781   2.430484 H        1 UNL1     0.0236
     103 H         6.245067   0.457971   1.890112 H        1 UNL1     0.0236
     104 H         4.253094   -0.575031   1.281213 H        1 UNL1     0.2098
     105 H         0.70043   1.28297   -0.934973 H        1 UNL1     0.0234
     106 H         1.285585   -0.402668   -1.020506 H        1 UNL1     0.0234
     107 H         0.0   -0.0   0.0 H        1 UNL1     0.0234
     108 H         1.256466   3.247232   1.712596 H        1 UNL1     0.2098
     109 H         1.069095   3.062356   -0.859678 H        1 UNL1     0.0234
     110 H         -0.188148   2.325408   -1.903253 H        1 UNL1     0.0234
     111 H         0.046519   4.038207   -1.893605 H        1 UNL1     0.0234
     112 H         -3.635113   -1.5784   1.333944 H        1 UNL1     0.0342
     113 H         -3.45089   0.082711   2.001036 H        1 UNL1     0.0342
     114 H         -4.467926   -0.203984   0.586322 H        1 UNL1     0.0342
     115 H         -2.65582   2.035768   3.269684 H        1 UNL1     0.0234
     116 H         -1.1941   1.841272   4.242479 H        1 UNL1     0.0234
     117 H         -1.518379   3.300451   3.283685 H        1 UNL1     0.0234
     118 H         0.920041   7.680903   -0.782053 H        1 UNL1     0.0309
     119 H         2.18274   7.791921   -2.047488 H        1 UNL1     0.0309
     120 H         1.435283   6.266908   -1.625826 H        1 UNL1     0.0309
     121 H         -0.735214   5.434223   3.966589 H        1 UNL1     0.0524
     122 H         -0.628277   6.468981   2.536661 H        1 UNL1     0.0524
     123 H         -2.188992   5.73022   2.975002 H        1 UNL1     0.0524
@<TRIPOS>BOND
     1     1     2    1
     2     1    42    1
     3     2     3    2
     4     3     4    1
     5     4     5    2
     6     5     7    1
     7     6    75    1
     8     6    76    1
     9     6    77    1
    10     7     9   am
    11     9    10    1
    12    10    11    2
    13    10    43    1
    14    11    14    1
    15    11    15    1
    16    12    13   ar
    17    12    27   ar
    18    12    43    1
    19    13    14    1
    20    13    30   ar
    21    14    17    2
    22    15    16    1
    23    16    17    1
    24    16    18    1
    25    16    22    1
    26    18    19    1
    27    19    20    1
    28    20    21    1
    29    21    22    1
    30    23    24    1
    31    23    88    1
    32    23    89    1
    33    24    25    1
    34    24    26    1
    35    24    90    1
    36    25    91    1
    37    25    92    1
    38    25    93    1
    39    26    94    1
    40    26    95    1
    41    26    96    1
    42    27    28   ar
    43    28    29   ar
    44    29    30   ar
    45    29    31    1
    46    30    33    1
    47    31    32    1
    48    32    33    1
    49    32    35    1
    50    34    97    1
    51    34    98    1
    52    34    99    1
    53    35    61    1
    54    36    37    1
    55    36    60    1
    56    37    38    1
    57    38    39    1
    58    39    40    1
    59    40    41    1
    60    41    42    1
    61    45   100    1
    62    47   101    1
    63    47   102    1
    64    47   103    1
    65    48   104    1
    66    49   105    1
    67    49   106    1
    68    49   107    1
    69    50   108    1
    70    51    59    1
    71    52   109    1
    72    52   110    1
    73    52   111    1
    74    53    54    1
    75    54    55    2
    76    54    56    1
    77    56   112    1
    78    56   113    1
    79    56   114    1
    80    57   115    1
    81    57   116    1
    82    57   117    1
    83    58   118    1
    84    58   119    1
    85    58   120    1
    86    59   121    1
    87    59   122    1
    88    59   123    1
    89    60    61    2
    90     1    47    1
    91     1    62    1
    92     2    63    1
    93     3    64    1
    94     4    65    1
    95     5     6    1
    96     7     8    2
    97     9    78    1
    98    15    79    1
    99    18    80    1
   100    18    81    1
   101    19    82    1
   102    19    83    1
   103    20    23    1
   104    21    84    1
   105    21    85    1
   106    22    86    1
   107    22    87    1
   108    27    45    1
   109    28    34    1
   110    32    58    1
   111    33    46    2
   112    36    51    1
   113    36    66    1
   114    37    52    1
   115    37    67    1
   116    38    53    1
   117    38    68    1
   118    42    48    1
   119    42    72    1
   120    43    44    2
   121    60    73    1
   122    61    74    1
   123    39    69    1
   124    39    57    1
   125    40    70    1
   126    40    50    1
   127    41    71    1
   128    41    49    1
