@<TRIPOS>MOLECULE
*****
 123 128 0 0 0
SMALL
GASTEIGER

@<TRIPOS>ATOM
     1 C         5.198038   1.598773   0.650841 C.3        1 UNL1     0.0009
     2 C         6.686393   2.352591   -0.157611 C.2        1 UNL1     -0.0787
     3 C         7.986528   2.20914   -0.778189 C.2        1 UNL1     -0.0649
     4 C         8.925969   3.409461   -1.5151 C.2        1 UNL1     -0.0542
     5 C         9.985568   3.661585   -2.421059 C.2        1 UNL1     0.0115
     6 C         11.123022   2.99362   -3.241635 C.3        1 UNL1     -0.0348
     7 C         10.146153   5.134847   -3.038069 C.2        1 UNL1     0.2441
     8 O         10.98122   5.935462   -2.64032 O.2        1 UNL1     -0.2702
     9 N         9.442598   5.351757   -4.235612 N.am        1 UNL1     -0.2772
     10 C         8.162261   5.779868   -3.969565 C.2        1 UNL1     0.1049
     11 C         7.278116   4.837285   -3.697447 C.2        1 UNL1     0.0801
     12 C         6.865972   7.439386   -2.619392 C.ar        1 UNL1     0.0753
     13 C         6.05847   6.339431   -2.187361 C.ar        1 UNL1     0.0305
     14 C         6.157691   5.02408   -2.815896 C.2        1 UNL1     0.0924
     15 N         7.36585   3.503632   -3.839574 N.pl3        1 UNL1     -0.3170
     16 C         6.06856   2.946007   -3.563266 C.3        1 UNL1     0.1275
     17 N         5.42849   3.930115   -2.614812 N.2        1 UNL1     -0.2557
     18 C         5.261165   3.017178   -4.855841 C.3        1 UNL1     0.0016
     19 C         6.032819   2.298968   -5.951428 C.3        1 UNL1     0.0026
     20 N         6.247986   0.917563   -5.543442 N.3        1 UNL1     -0.3018
     21 C         6.963745   0.747535   -4.277287 C.3        1 UNL1     0.0026
     22 C         6.168703   1.472803   -3.190186 C.3        1 UNL1     0.0016
     23 C         6.704853   0.073444   -6.629434 C.3        1 UNL1     0.0012
     24 C         5.576316   -0.151765   -7.647983 C.3        1 UNL1     -0.0339
     25 C         5.681715   0.826422   -8.829549 C.3        1 UNL1     -0.0615
     26 C         5.578274   -1.596515   -8.116465 C.3        1 UNL1     -0.0615
     27 C         6.681546   8.718253   -2.099197 C.ar        1 UNL1     0.1347
     28 C         5.699112   9.026447   -1.175135 C.ar        1 UNL1     0.0342
     29 C         4.948412   7.918382   -0.72814 C.ar        1 UNL1     0.1435
     30 C         5.146014   6.625107   -1.21354 C.ar        1 UNL1     0.0774
     31 O         3.883024   8.071996   0.088168 O.3        1 UNL1     -0.4436
     32 C         3.129661   6.859849   -0.066797 C.3        1 UNL1     0.3143
     33 C         4.129931   5.831357   -0.554524 C.2        1 UNL1     0.2504
     34 C         5.279082   10.409866   -0.763033 C.3        1 UNL1     -0.0327
     35 O         2.711639   6.448041   1.240462 O.2        1 UNL1     -0.4528
     36 C         -0.573005   4.609496   0.751635 C.3        1 UNL1     0.0854
     37 C         -0.885698   3.349184   -0.143551 C.3        1 UNL1     0.0236
     38 C         -1.550406   2.115034   0.63541 C.3        1 UNL1     0.1131
     39 C         -0.885493   1.576439   1.965852 C.3        1 UNL1     0.0200
     40 C         0.768198   1.381785   2.065123 C.3        1 UNL1     0.0661
     41 C         1.742921   0.572338   0.937152 C.3        1 UNL1     0.0091
     42 C         3.478796   0.877752   0.428366 C.3        1 UNL1     0.0661
     43 C         7.846709   7.191568   -3.70521 C.2        1 UNL1     0.2131
     44 O         8.297636   8.069658   -4.418203 O.2        1 UNL1     -0.2851
     45 O         7.539768   9.723736   -2.539536 O.3        1 UNL1     -0.5056
     46 O         4.105117   4.629331   -0.411793 O.2        1 UNL1     -0.2836
     47 C         5.532331   1.172873   2.105777 C.3        1 UNL1     -0.0566
     48 O         3.881499   -0.545178   0.538893 O.3        1 UNL1     -0.3909
     49 C         0.944541   0.351674   -0.328309 C.3        1 UNL1     -0.0577
     50 O         1.391274   2.585261   2.466552 O.3        1 UNL1     -0.3910
     51 O         -0.749797   4.438331   2.139756 O.3        1 UNL1     -0.3753
     52 C         0.191847   3.145413   -1.258147 C.3        1 UNL1     -0.0564
     53 O         -2.153318   1.085059   -0.274521 O.3        1 UNL1     -0.4608
     54 C         -2.438463   -0.210445   0.069417 C.2        1 UNL1     0.3042
     55 O         -1.884331   -1.230618   -0.338042 O.2        1 UNL1     -0.2512
     56 C         -3.520133   -0.333701   1.104556 C.3        1 UNL1     0.0332
     57 C         -1.62826   2.279968   3.195291 C.3        1 UNL1     -0.0567
     58 C         2.099676   7.125469   -1.189341 C.3        1 UNL1     0.0210
     59 C         -1.052103   5.633925   2.857414 C.3        1 UNL1     0.0372
     60 C         0.781434   5.196128   0.560542 C.2        1 UNL1     -0.0208
     61 C         1.677151   5.613066   1.456421 C.2        1 UNL1     0.0882
     62 H         4.749389   2.59759   0.7124 H        1 UNL1     0.0365
     63 H         6.448694   3.414928   -0.071532 H        1 UNL1     0.0576
     64 H         8.421981   1.226767   -0.974232 H        1 UNL1     0.0615
     65 H         8.455306   4.342615   -1.193879 H        1 UNL1     0.0622
     66 H         -1.283834   5.374611   0.409046 H        1 UNL1     0.0645
     67 H         -1.720318   3.677783   -0.786973 H        1 UNL1     0.0362
     68 H         -2.495207   2.583701   0.950411 H        1 UNL1     0.0741
     69 H         -1.253837   0.577818   2.159471 H        1 UNL1     0.0359
     70 H         0.830082   0.727768   2.955905 H        1 UNL1     0.0600
     71 H         1.741156   -0.4451   1.375071 H        1 UNL1     0.0348
     72 H         3.354617   1.379237   1.399143 H        1 UNL1     0.0602
     73 H         0.94025   5.378792   -0.473218 H        1 UNL1     0.0628
     74 H         1.61705   5.414349   2.526999 H        1 UNL1     0.1022
     75 H         11.110927   1.886123   -3.099029 H        1 UNL1     0.0279
     76 H         11.062614   3.091213   -4.323252 H        1 UNL1     0.0279
     77 H         12.124757   3.249581   -2.866519 H        1 UNL1     0.0279
     78 H         9.372138   4.478546   -4.753892 H        1 UNL1     0.1553
     79 H         8.038398   3.049452   -4.429771 H        1 UNL1     0.1484
     80 H         4.27947   2.55726   -4.689959 H        1 UNL1     0.0317
     81 H         5.075286   4.057313   -5.144321 H        1 UNL1     0.0317
     82 H         6.986969   2.799578   -6.172559 H        1 UNL1     0.0428
     83 H         5.440155   2.363323   -6.864477 H        1 UNL1     0.0428
     84 H         7.041966   -0.295216   -3.954235 H        1 UNL1     0.0428
     85 H         8.007411   1.083513   -4.349386 H        1 UNL1     0.0428
     86 H         6.646299   1.216747   -2.262648 H        1 UNL1     0.0317
     87 H         5.171602   1.025988   -3.094052 H        1 UNL1     0.0317
     88 H         7.534312   0.585609   -7.13439 H        1 UNL1     0.0429
     89 H         7.096551   -0.881062   -6.254916 H        1 UNL1     0.0429
     90 H         4.609963   0.001316   -7.153069 H        1 UNL1     0.0308
     91 H         6.650467   0.741538   -9.330963 H        1 UNL1     0.0233
     92 H         4.8853   0.643486   -9.554715 H        1 UNL1     0.0233
     93 H         5.576032   1.872242   -8.516616 H        1 UNL1     0.0233
     94 H         4.908848   -1.716026   -8.975197 H        1 UNL1     0.0233
     95 H         6.584906   -1.885982   -8.430889 H        1 UNL1     0.0233
     96 H         5.247713   -2.273509   -7.323763 H        1 UNL1     0.0233
     97 H         4.453966   10.391891   -0.057277 H        1 UNL1     0.0280
     98 H         6.089549   10.956985   -0.263974 H        1 UNL1     0.0280
     99 H         4.961239   10.979167   -1.651834 H        1 UNL1     0.0280
     100 H         7.106803   10.485041   -2.883887 H        1 UNL1     0.2922
     101 H         4.637271   0.782121   2.589344 H        1 UNL1     0.0236
     102 H         5.998507   1.966725   2.688413 H        1 UNL1     0.0236
     103 H         6.254163   0.339735   2.137921 H        1 UNL1     0.0236
     104 H         4.261731   -0.675777   1.429588 H        1 UNL1     0.2098
     105 H         0.778671   1.250336   -0.917125 H        1 UNL1     0.0234
     106 H         1.311945   -0.453932   -0.963872 H        1 UNL1     0.0234
     107 H         0.0   -0.0   0.0 H        1 UNL1     0.0234
     108 H         1.251443   3.23657   1.7524 H        1 UNL1     0.2098
     109 H         1.201169   3.017746   -0.842595 H        1 UNL1     0.0234
     110 H         -0.036165   2.310745   -1.929774 H        1 UNL1     0.0234
     111 H         0.253087   4.015198   -1.925732 H        1 UNL1     0.0234
     112 H         -3.683453   -1.387826   1.348468 H        1 UNL1     0.0342
     113 H         -3.297818   0.244639   2.000069 H        1 UNL1     0.0342
     114 H         -4.451654   0.061071   0.676084 H        1 UNL1     0.0342
     115 H         -2.705573   2.064168   3.199226 H        1 UNL1     0.0234
     116 H         -1.23322   1.997486   4.173143 H        1 UNL1     0.0234
     117 H         -1.631885   3.381908   3.134833 H        1 UNL1     0.0234
     118 H         1.199612   7.642023   -0.812428 H        1 UNL1     0.0309
     119 H         2.514651   7.694483   -2.027328 H        1 UNL1     0.0309
     120 H         1.698872   6.201076   -1.619411 H        1 UNL1     0.0309
     121 H         -0.206017   6.310762   2.741718 H        1 UNL1     0.0524
     122 H         -1.943937   6.146363   2.459826 H        1 UNL1     0.0524
     123 H         -1.212782   5.410982   3.908401 H        1 UNL1     0.0524
@<TRIPOS>BOND
     1     1     2    1
     2     1    42    1
     3     2     3    2
     4     3     4    1
     5     4     5    2
     6     5     7    1
     7     6    75    1
     8     6    76    1
     9     6    77    1
    10     7     9   am
    11     9    10    1
    12    10    11    2
    13    10    43    1
    14    11    14    1
    15    11    15    1
    16    12    13   ar
    17    12    27   ar
    18    12    43    1
    19    13    14    1
    20    13    30   ar
    21    14    17    2
    22    15    16    1
    23    16    17    1
    24    16    18    1
    25    16    22    1
    26    18    19    1
    27    19    20    1
    28    20    21    1
    29    21    22    1
    30    23    24    1
    31    23    88    1
    32    23    89    1
    33    24    25    1
    34    24    26    1
    35    24    90    1
    36    25    91    1
    37    25    92    1
    38    25    93    1
    39    26    94    1
    40    26    95    1
    41    26    96    1
    42    27    28   ar
    43    28    29   ar
    44    29    30   ar
    45    29    31    1
    46    30    33    1
    47    31    32    1
    48    32    33    1
    49    32    35    1
    50    34    97    1
    51    34    98    1
    52    34    99    1
    53    35    61    1
    54    36    37    1
    55    36    60    1
    56    37    38    1
    57    38    39    1
    58    39    40    1
    59    40    41    1
    60    41    42    1
    61    45   100    1
    62    47   101    1
    63    47   102    1
    64    47   103    1
    65    48   104    1
    66    49   105    1
    67    49   106    1
    68    49   107    1
    69    50   108    1
    70    51    59    1
    71    52   109    1
    72    52   110    1
    73    52   111    1
    74    53    54    1
    75    54    55    2
    76    54    56    1
    77    56   112    1
    78    56   113    1
    79    56   114    1
    80    57   115    1
    81    57   116    1
    82    57   117    1
    83    58   118    1
    84    58   119    1
    85    58   120    1
    86    59   121    1
    87    59   122    1
    88    59   123    1
    89    60    61    2
    90     1    47    1
    91     1    62    1
    92     2    63    1
    93     3    64    1
    94     4    65    1
    95     5     6    1
    96     7     8    2
    97     9    78    1
    98    15    79    1
    99    18    80    1
   100    18    81    1
   101    19    82    1
   102    19    83    1
   103    20    23    1
   104    21    84    1
   105    21    85    1
   106    22    86    1
   107    22    87    1
   108    27    45    1
   109    28    34    1
   110    32    58    1
   111    33    46    2
   112    36    51    1
   113    36    66    1
   114    37    52    1
   115    37    67    1
   116    38    53    1
   117    38    68    1
   118    42    48    1
   119    42    72    1
   120    43    44    2
   121    60    73    1
   122    61    74    1
   123    39    69    1
   124    39    57    1
   125    40    70    1
   126    40    50    1
   127    41    71    1
   128    41    49    1
