@<TRIPOS>MOLECULE
*****
 123 128 0 0 0
SMALL
GASTEIGER

@<TRIPOS>ATOM
     1 C         3.642211   0.244531   4.067382 C.3        1 UNL1     0.0009
     2 C         5.132238   -0.560615   4.821436 C.2        1 UNL1     -0.0787
     3 C         5.732742   -1.362958   5.866274 C.2        1 UNL1     -0.0649
     4 C         7.326753   -1.925746   5.959844 C.2        1 UNL1     -0.0542
     5 C         8.1874   -2.882274   6.552651 C.2        1 UNL1     0.0115
     6 C         8.283736   -3.975062   7.652586 C.3        1 UNL1     -0.0348
     7 C         9.616409   -3.165119   5.878174 C.2        1 UNL1     0.2441
     8 O         10.662444   -2.709682   6.319664 O.2        1 UNL1     -0.2702
     9 N         9.617829   -4.179221   4.904652 N.am        1 UNL1     -0.2772
     10 C         9.319612   -3.657152   3.66698 C.2        1 UNL1     0.1049
     11 C         8.037077   -3.491815   3.39867 C.2        1 UNL1     0.0801
     12 C         9.926291   -1.807755   2.095672 C.ar        1 UNL1     0.0753
     13 C         8.524634   -1.533814   2.001222 C.ar        1 UNL1     0.0305
     14 C         7.527173   -2.451419   2.54723 C.2        1 UNL1     0.0924
     15 N         6.952681   -3.942627   4.052415 N.pl3        1 UNL1     -0.3170
     16 C         5.797143   -3.631724   3.253464 C.3        1 UNL1     0.1275
     17 N         6.200342   -2.409299   2.465537 N.2        1 UNL1     -0.2557
     18 C         5.634918   -4.756902   2.235938 C.3        1 UNL1     0.0016
     19 C         5.544975   -6.078391   2.982374 C.3        1 UNL1     0.0026
     20 N         4.408147   -6.025866   3.89116 N.3        1 UNL1     -0.3018
     21 C         4.443804   -4.936532   4.869142 C.3        1 UNL1     0.0026
     22 C         4.529443   -3.618559   4.097449 C.3        1 UNL1     0.0016
     23 C         4.053636   -7.32523   4.426527 C.3        1 UNL1     0.0012
     24 C         5.183407   -7.867827   5.315886 C.3        1 UNL1     -0.0339
     25 C         5.471819   -6.925558   6.496143 C.3        1 UNL1     -0.0615
     26 C         4.844844   -9.270404   5.790158 C.3        1 UNL1     -0.0615
     27 C         10.865023   -0.991772   1.468717 C.ar        1 UNL1     0.1347
     28 C         10.521728   0.09901   0.690003 C.ar        1 UNL1     0.0342
     29 C         9.139051   0.378088   0.651495 C.ar        1 UNL1     0.1435
     30 C         8.189732   -0.409311   1.304194 C.ar        1 UNL1     0.0774
     31 O         8.63651   1.340767   -0.152065 O.3        1 UNL1     -0.4436
     32 C         7.244136   1.015672   -0.280443 C.3        1 UNL1     0.3143
     33 C         6.918068   0.180479   0.941172 C.2        1 UNL1     0.2504
     34 C         11.448902   0.865334   -0.21177 C.3        1 UNL1     -0.0327
     35 O         6.508046   2.238966   -0.158071 O.2        1 UNL1     -0.4528
     36 C         3.375557   1.782562   -2.252658 C.3        1 UNL1     0.0854
     37 C         2.258512   0.674239   -2.146117 C.3        1 UNL1     0.0236
     38 C         0.765034   1.233827   -1.978394 C.3        1 UNL1     0.1131
     39 C         0.450076   2.308397   -0.86109 C.3        1 UNL1     0.0200
     40 C         1.08366   2.142692   0.673039 C.3        1 UNL1     0.0661
     41 C         1.019628   0.742584   1.628658 C.3        1 UNL1     0.0091
     42 C         2.205601   0.092524   2.868131 C.3        1 UNL1     0.0661
     43 C         10.342461   -3.040746   2.808972 C.2        1 UNL1     0.2131
     44 O         11.415616   -3.58922   2.635043 O.2        1 UNL1     -0.2851
     45 O         12.211544   -1.3018   1.648162 O.3        1 UNL1     -0.5056
     46 O         5.853047   0.049194   1.501841 O.2        1 UNL1     -0.2836
     47 C         3.244571   1.508246   4.876634 C.3        1 UNL1     -0.0566
     48 O         1.165497   -0.176088   3.890456 O.3        1 UNL1     -0.3909
     49 C         0.607253   -0.423721   0.758501 C.3        1 UNL1     -0.0577
     50 O         2.37121   2.720812   0.748646 O.3        1 UNL1     -0.3910
     51 O         2.95428   3.106693   -2.01468 O.3        1 UNL1     -0.3753
     52 C         2.764105   -0.589275   -1.376144 C.3        1 UNL1     -0.0564
     53 O         -0.294882   0.201608   -2.230243 O.3        1 UNL1     -0.4608
     54 C         -1.563352   0.45804   -2.680971 C.2        1 UNL1     0.3042
     55 O         -2.569616   0.662914   -2.003255 O.2        1 UNL1     -0.2512
     56 C         -1.664557   0.540837   -4.177505 C.3        1 UNL1     0.0332
     57 C         0.523585   3.75194   -1.545892 C.3        1 UNL1     -0.0567
     58 C         7.116589   0.127901   -1.540255 C.3        1 UNL1     0.0210
     59 C         3.768692   4.112063   -2.616204 C.3        1 UNL1     0.0372
     60 C         4.572698   1.552957   -1.39867 C.2        1 UNL1     -0.0208
     61 C         5.251571   2.394247   -0.617577 C.2        1 UNL1     0.0882
     62 H         4.271825   0.589188   3.23822 H        1 UNL1     0.0365
     63 H         5.917045   -0.205639   4.150213 H        1 UNL1     0.0576
     64 H         5.128891   -1.831944   6.646354 H        1 UNL1     0.0615
     65 H         7.854077   -1.342472   5.200105 H        1 UNL1     0.0622
     66 H         3.729572   1.718709   -3.291235 H        1 UNL1     0.0645
     67 H         2.216762   0.237446   -3.159048 H        1 UNL1     0.0362
     68 H         0.660323   1.768214   -2.934944 H        1 UNL1     0.0741
     69 H         -0.616068   2.317467   -0.677615 H        1 UNL1     0.0359
     70 H         0.431745   2.846086   1.225582 H        1 UNL1     0.0600
     71 H         0.084901   0.934967   2.191002 H        1 UNL1     0.0348
     72 H         2.444849   1.159338   2.749884 H        1 UNL1     0.0602
     73 H         4.947263   0.575785   -1.577787 H        1 UNL1     0.0628
     74 H         4.906853   3.390338   -0.337915 H        1 UNL1     0.1022
     75 H         7.350171   -4.587229   7.679823 H        1 UNL1     0.0279
     76 H         9.055252   -4.730206   7.519952 H        1 UNL1     0.0279
     77 H         8.29744   -3.555255   8.669087 H        1 UNL1     0.0279
     78 H         8.902131   -4.867953   5.127144 H        1 UNL1     0.1553
     79 H         6.972863   -4.703527   4.706293 H        1 UNL1     0.1484
     80 H         4.733683   -4.57193   1.639007 H        1 UNL1     0.0317
     81 H         6.476622   -4.775252   1.535332 H        1 UNL1     0.0317
     82 H         6.47508   -6.303845   3.524579 H        1 UNL1     0.0428
     83 H         5.431491   -6.867068   2.237954 H        1 UNL1     0.0428
     84 H         3.542177   -4.871255   5.486086 H        1 UNL1     0.0428
     85 H         5.256349   -5.067218   5.59716 H        1 UNL1     0.0428
     86 H         4.419475   -2.844197   4.833831 H        1 UNL1     0.0317
     87 H         3.641286   -3.495906   3.465603 H        1 UNL1     0.0317
     88 H         3.15146   -7.206933   5.040838 H        1 UNL1     0.0429
     89 H         3.806277   -8.032877   3.624764 H        1 UNL1     0.0429
     90 H         6.096327   -7.966473   4.71667 H        1 UNL1     0.0308
     91 H         5.047805   -5.931667   6.324403 H        1 UNL1     0.0233
     92 H         5.065059   -7.333487   7.424447 H        1 UNL1     0.0233
     93 H         6.546268   -6.78775   6.667616 H        1 UNL1     0.0233
     94 H         4.121486   -9.227041   6.611565 H        1 UNL1     0.0233
     95 H         4.394328   -9.842215   4.974052 H        1 UNL1     0.0233
     96 H         5.735557   -9.798682   6.141613 H        1 UNL1     0.0233
     97 H         12.066479   1.567351   0.340501 H        1 UNL1     0.0280
     98 H         12.146463   0.206064   -0.744712 H        1 UNL1     0.0280
     99 H         10.85974   1.43129   -0.951821 H        1 UNL1     0.0280
     100 H         12.617937   -0.872527   2.380413 H        1 UNL1     0.2922
     101 H         3.57064   2.402429   4.345812 H        1 UNL1     0.0236
     102 H         3.603788   1.489292   5.905024 H        1 UNL1     0.0236
     103 H         2.150585   1.617404   4.963067 H        1 UNL1     0.0236
     104 H         0.776315   -1.050374   3.692638 H        1 UNL1     0.2098
     105 H         1.434128   -0.937391   0.274524 H        1 UNL1     0.0234
     106 H         -0.05227   -1.143085   1.243755 H        1 UNL1     0.0234
     107 H         -0.0   0.0   0.0 H        1 UNL1     0.0234
     108 H         2.985752   2.122461   0.281654 H        1 UNL1     0.2098
     109 H         2.319792   -0.671373   -0.374367 H        1 UNL1     0.0234
     110 H         2.601802   -1.522257   -1.926549 H        1 UNL1     0.0234
     111 H         3.850385   -0.559053   -1.217944 H        1 UNL1     0.0234
     112 H         -1.318979   -0.395406   -4.626248 H        1 UNL1     0.0342
     113 H         -2.673885   0.782828   -4.50696 H        1 UNL1     0.0342
     114 H         -1.00006   1.345005   -4.522355 H        1 UNL1     0.0342
     115 H         0.245091   3.714735   -2.608081 H        1 UNL1     0.0234
     116 H         -0.107663   4.503127   -1.067046 H        1 UNL1     0.0234
     117 H         1.548032   4.157598   -1.608276 H        1 UNL1     0.0234
     118 H         6.877019   0.719011   -2.441477 H        1 UNL1     0.0309
     119 H         8.010061   -0.474117   -1.73386 H        1 UNL1     0.0309
     120 H         6.282889   -0.579605   -1.473275 H        1 UNL1     0.0309
     121 H         3.108868   4.906597   -2.963629 H        1 UNL1     0.0524
     122 H         4.478412   4.559189   -1.900373 H        1 UNL1     0.0524
     123 H         4.325262   3.695253   -3.450826 H        1 UNL1     0.0524
@<TRIPOS>BOND
     1     1     2    1
     2     1    42    1
     3     2     3    2
     4     3     4    1
     5     4     5    2
     6     5     7    1
     7     6    75    1
     8     6    76    1
     9     6    77    1
    10     7     9   am
    11     9    10    1
    12    10    11    2
    13    10    43    1
    14    11    14    1
    15    11    15    1
    16    12    13   ar
    17    12    27   ar
    18    12    43    1
    19    13    14    1
    20    13    30   ar
    21    14    17    2
    22    15    16    1
    23    16    17    1
    24    16    18    1
    25    16    22    1
    26    18    19    1
    27    19    20    1
    28    20    21    1
    29    21    22    1
    30    23    24    1
    31    23    88    1
    32    23    89    1
    33    24    25    1
    34    24    26    1
    35    24    90    1
    36    25    91    1
    37    25    92    1
    38    25    93    1
    39    26    94    1
    40    26    95    1
    41    26    96    1
    42    27    28   ar
    43    28    29   ar
    44    29    30   ar
    45    29    31    1
    46    30    33    1
    47    31    32    1
    48    32    33    1
    49    32    35    1
    50    34    97    1
    51    34    98    1
    52    34    99    1
    53    35    61    1
    54    36    37    1
    55    36    60    1
    56    37    38    1
    57    38    39    1
    58    39    40    1
    59    40    41    1
    60    41    42    1
    61    45   100    1
    62    47   101    1
    63    47   102    1
    64    47   103    1
    65    48   104    1
    66    49   105    1
    67    49   106    1
    68    49   107    1
    69    50   108    1
    70    51    59    1
    71    52   109    1
    72    52   110    1
    73    52   111    1
    74    53    54    1
    75    54    55    2
    76    54    56    1
    77    56   112    1
    78    56   113    1
    79    56   114    1
    80    57   115    1
    81    57   116    1
    82    57   117    1
    83    58   118    1
    84    58   119    1
    85    58   120    1
    86    59   121    1
    87    59   122    1
    88    59   123    1
    89    60    61    2
    90     1    47    1
    91     1    62    1
    92     2    63    1
    93     3    64    1
    94     4    65    1
    95     5     6    1
    96     7     8    2
    97     9    78    1
    98    15    79    1
    99    18    80    1
   100    18    81    1
   101    19    82    1
   102    19    83    1
   103    20    23    1
   104    21    84    1
   105    21    85    1
   106    22    86    1
   107    22    87    1
   108    27    45    1
   109    28    34    1
   110    32    58    1
   111    33    46    2
   112    36    51    1
   113    36    66    1
   114    37    52    1
   115    37    67    1
   116    38    53    1
   117    38    68    1
   118    42    48    1
   119    42    72    1
   120    43    44    2
   121    60    73    1
   122    61    74    1
   123    39    69    1
   124    39    57    1
   125    40    70    1
   126    40    50    1
   127    41    71    1
   128    41    49    1
