@<TRIPOS>MOLECULE
*****
 123 128 0 0 0
SMALL
GASTEIGER

@<TRIPOS>ATOM
     1 C         -4.354134   2.964209   1.505764 C.3        1 UNL1     0.0009
     2 C         -5.87249   3.859274   0.930879 C.2        1 UNL1     -0.0787
     3 C         -6.55751   5.09434   0.61244 C.2        1 UNL1     -0.0649
     4 C         -8.098894   5.285499   -0.06132 C.2        1 UNL1     -0.0542
     5 C         -8.961009   6.169667   -0.755641 C.2        1 UNL1     0.0115
     6 C         -9.134599   7.636883   -1.235709 C.3        1 UNL1     -0.0348
     7 C         -10.247172   5.57064   -1.5066 C.2        1 UNL1     0.2441
     8 O         -11.379583   5.646481   -1.05007 O.2        1 UNL1     -0.2702
     9 N         -10.024512   5.186177   -2.840302 N.am        1 UNL1     -0.2772
     10 C         -9.586904   3.882901   -2.897695 C.2        1 UNL1     0.1049
     11 C         -8.29555   3.693125   -2.696166 C.2        1 UNL1     0.0801
     12 C         -10.095107   1.58116   -2.060407 C.ar        1 UNL1     0.0753
     13 C         -8.720689   1.505224   -1.668215 C.ar        1 UNL1     0.0305
     14 C         -7.747204   2.508664   -2.093052 C.2        1 UNL1     0.0924
     15 N         -7.288809   4.582373   -2.648867 N.pl3        1 UNL1     -0.3170
     16 C         -6.05496   3.845777   -2.576096 C.3        1 UNL1     0.1275
     17 N         -6.430374   2.544692   -1.909787 N.2        1 UNL1     -0.2557
     18 C         -5.65577   3.490041   -4.005012 C.3        1 UNL1     0.0016
     19 C         -5.575251   4.77064   -4.820592 C.3        1 UNL1     0.0026
     20 N         -4.594052   5.654959   -4.207194 N.3        1 UNL1     -0.3018
     21 C         -4.859792   6.004757   -2.810272 C.3        1 UNL1     0.0026
     22 C         -4.932031   4.703989   -2.0086 C.3        1 UNL1     0.0016
     23 C         -4.223019   6.764991   -5.062067 C.3        1 UNL1     0.0012
     24 C         -5.208304   7.931498   -4.888197 C.3        1 UNL1     -0.0339
     25 C         -6.186853   8.0221   -6.07069 C.3        1 UNL1     -0.0615
     26 C         -5.941578   7.800942   -3.564549 C.3        1 UNL1     -0.0615
     27 C         -10.990718   0.559461   -1.753598 C.ar        1 UNL1     0.1347
     28 C         -10.621371   -0.600487   -1.096215 C.ar        1 UNL1     0.0342
     29 C         -9.274394   -0.631423   -0.676856 C.ar        1 UNL1     0.1435
     30 C         -8.374409   0.400634   -0.945383 C.ar        1 UNL1     0.0774
     31 O         -8.734379   -1.738284   -0.121654 O.3        1 UNL1     -0.4436
     32 C         -7.317355   -1.56606   -0.274147 C.3        1 UNL1     0.3143
     33 C         -7.112758   -0.07113   -0.41393 C.2        1 UNL1     0.2504
     34 C         -11.460786   -1.839731   -0.955659 C.3        1 UNL1     -0.0327
     35 O         -6.705341   -1.957207   0.961043 O.2        1 UNL1     -0.4528
     36 C         -3.269884   -3.286433   0.045142 C.3        1 UNL1     0.0854
     37 C         -2.098194   -2.569335   -0.729736 C.3        1 UNL1     0.0236
     38 C         -0.69458   -2.538788   0.045299 C.3        1 UNL1     0.1131
     39 C         -0.634294   -2.02585   1.540468 C.3        1 UNL1     0.0200
     40 C         -1.474434   -0.659907   1.9996 C.3        1 UNL1     0.0661
     41 C         -1.444483   0.83884   1.205577 C.3        1 UNL1     0.0091
     42 C         -2.747502   2.117975   1.028499 C.3        1 UNL1     0.0661
     43 C         -10.515462   2.742766   -2.882742 C.2        1 UNL1     0.2131
     44 O         -11.504678   2.741977   -3.592804 O.2        1 UNL1     -0.2851
     45 O         -12.320631   0.732274   -2.131627 O.3        1 UNL1     -0.5056
     46 O         -6.136166   0.585603   -0.12964 O.2        1 UNL1     -0.2836
     47 C         -4.181208   3.126015   3.040005 C.3        1 UNL1     -0.0566
     48 O         -1.853523   3.242404   1.396711 O.3        1 UNL1     -0.3909
     49 C         -0.817446   0.655942   -0.158559 C.3        1 UNL1     -0.0577
     50 O         -2.799993   -0.986288   2.365785 O.3        1 UNL1     -0.3910
     51 O         -2.993282   -3.653075   1.377994 O.3        1 UNL1     -0.3753
     52 C         -2.612761   -1.352253   -1.565727 C.3        1 UNL1     -0.0564
     53 O         0.468238   -2.177914   -0.832169 O.3        1 UNL1     -0.4608
     54 C         0.572523   -1.037542   -1.584901 C.2        1 UNL1     0.3042
     55 O         0.735674   0.112625   -1.179518 O.2        1 UNL1     -0.2512
     56 C         0.531307   -1.288373   -3.065475 C.3        1 UNL1     0.0332
     57 C         -0.717308   -3.307473   2.493739 C.3        1 UNL1     -0.0567
     58 C         -6.934772   -2.248817   -1.60794 C.3        1 UNL1     0.0210
     59 C         -4.101578   -4.198991   2.091801 C.3        1 UNL1     0.0372
     60 C         -4.559278   -2.543266   0.063148 C.2        1 UNL1     -0.0208
     61 C         -5.410416   -2.313014   1.063795 C.2        1 UNL1     0.0882
     62 H         -4.878163   2.013764   1.348417 H        1 UNL1     0.0365
     63 H         -6.573831   3.028059   0.832526 H        1 UNL1     0.0576
     64 H         -6.041874   6.057015   0.634469 H        1 UNL1     0.0615
     65 H         -8.551033   4.294863   0.037141 H        1 UNL1     0.0622
     66 H         -3.459197   -4.204436   -0.528861 H        1 UNL1     0.0645
     67 H         -1.872119   -3.253107   -1.56634 H        1 UNL1     0.0362
     68 H         -0.490555   -3.619071   0.09899 H        1 UNL1     0.0741
     69 H         0.388643   -1.766199   1.778354 H        1 UNL1     0.0359
     70 H         -0.968933   -0.438634   2.959062 H        1 UNL1     0.0600
     71 H         -0.621813   1.333831   1.757985 H        1 UNL1     0.0348
     72 H         -3.048907   1.494262   1.882578 H        1 UNL1     0.0602
     73 H         -4.825649   -2.281888   -0.930822 H        1 UNL1     0.0628
     74 H         -5.189917   -2.497611   2.115717 H        1 UNL1     0.1022
     75 H         -8.899373   8.350173   -0.409319 H        1 UNL1     0.0279
     76 H         -8.469036   7.969725   -2.029001 H        1 UNL1     0.0279
     77 H         -10.182372   7.892677   -1.451212 H        1 UNL1     0.0279
     78 H         -9.298441   5.77136   -3.248295 H        1 UNL1     0.1553
     79 H         -7.346769   5.509959   -3.027229 H        1 UNL1     0.1484
     80 H         -4.692876   2.965368   -3.987128 H        1 UNL1     0.0317
     81 H         -6.379717   2.801323   -4.453587 H        1 UNL1     0.0317
     82 H         -6.555298   5.26324   -4.902851 H        1 UNL1     0.0428
     83 H         -5.29102   4.493822   -5.836286 H        1 UNL1     0.0428
     84 H         -4.067973   6.603782   -2.349832 H        1 UNL1     0.0428
     85 H         -5.759013   6.628005   -2.708884 H        1 UNL1     0.0428
     86 H         -4.993678   5.001873   -0.978332 H        1 UNL1     0.0317
     87 H         -3.97197   4.176356   -2.063222 H        1 UNL1     0.0317
     88 H         -3.222466   7.105373   -4.764865 H        1 UNL1     0.0429
     89 H         -4.158201   6.454688   -6.112917 H        1 UNL1     0.0429
     90 H         -4.645852   8.87075   -4.827651 H        1 UNL1     0.0308
     91 H         -6.476024   7.028041   -6.424707 H        1 UNL1     0.0233
     92 H         -7.084336   8.577149   -5.787749 H        1 UNL1     0.0233
     93 H         -5.756941   8.55279   -6.928815 H        1 UNL1     0.0233
     94 H         -6.011546   6.747168   -3.273858 H        1 UNL1     0.0233
     95 H         -5.394252   8.331363   -2.780299 H        1 UNL1     0.0233
     96 H         -6.953823   8.210113   -3.627073 H        1 UNL1     0.0233
     97 H         -11.181492   -2.604686   -1.674038 H        1 UNL1     0.0280
     98 H         -11.352574   -2.302833   0.033827 H        1 UNL1     0.0280
     99 H         -12.521785   -1.586833   -1.115095 H        1 UNL1     0.0280
     100 H         -12.93469   0.1989   -1.658271 H        1 UNL1     0.2922
     101 H         -3.987897   2.153755   3.492773 H        1 UNL1     0.0236
     102 H         -5.01751   3.638851   3.513904 H        1 UNL1     0.0236
     103 H         -3.297455   3.734297   3.295282 H        1 UNL1     0.0236
     104 H         -2.203246   4.049108   0.970221 H        1 UNL1     0.2098
     105 H         -1.472352   0.199128   -0.896279 H        1 UNL1     0.0234
     106 H         -0.352121   1.551714   -0.569646 H        1 UNL1     0.0234
     107 H         0.0   0.0   0.0 H        1 UNL1     0.0234
     108 H         -2.786112   -1.893457   2.727199 H        1 UNL1     0.2098
     109 H         -3.614295   -1.026013   -1.252344 H        1 UNL1     0.0234
     110 H         -1.927279   -0.498097   -1.549134 H        1 UNL1     0.0234
     111 H         -2.701376   -1.601796   -2.631476 H        1 UNL1     0.0234
     112 H         -0.401678   -0.898038   -3.483233 H        1 UNL1     0.0342
     113 H         1.395122   -0.865992   -3.576612 H        1 UNL1     0.0342
     114 H         0.545488   -2.374609   -3.229961 H        1 UNL1     0.0342
     115 H         -1.31007   -4.114772   2.041977 H        1 UNL1     0.0234
     116 H         0.255215   -3.724856   2.762139 H        1 UNL1     0.0234
     117 H         -1.279321   -3.126557   3.42613 H        1 UNL1     0.0234
     118 H         -5.941925   -1.927369   -1.968402 H        1 UNL1     0.0309
     119 H         -6.959466   -3.341815   -1.553656 H        1 UNL1     0.0309
     120 H         -7.60393   -1.970823   -2.429557 H        1 UNL1     0.0309
     121 H         -4.163411   -5.258429   1.844568 H        1 UNL1     0.0524
     122 H         -3.975425   -4.119898   3.184443 H        1 UNL1     0.0524
     123 H         -5.019197   -3.693049   1.805284 H        1 UNL1     0.0524
@<TRIPOS>BOND
     1     1     2    1
     2     1    42    1
     3     2     3    2
     4     3     4    1
     5     4     5    2
     6     5     7    1
     7     6    75    1
     8     6    76    1
     9     6    77    1
    10     7     9   am
    11     9    10    1
    12    10    11    2
    13    10    43    1
    14    11    14    1
    15    11    15    1
    16    12    13   ar
    17    12    27   ar
    18    12    43    1
    19    13    14    1
    20    13    30   ar
    21    14    17    2
    22    15    16    1
    23    16    17    1
    24    16    18    1
    25    16    22    1
    26    18    19    1
    27    19    20    1
    28    20    21    1
    29    21    22    1
    30    23    24    1
    31    23    88    1
    32    23    89    1
    33    24    25    1
    34    24    26    1
    35    24    90    1
    36    25    91    1
    37    25    92    1
    38    25    93    1
    39    26    94    1
    40    26    95    1
    41    26    96    1
    42    27    28   ar
    43    28    29   ar
    44    29    30   ar
    45    29    31    1
    46    30    33    1
    47    31    32    1
    48    32    33    1
    49    32    35    1
    50    34    97    1
    51    34    98    1
    52    34    99    1
    53    35    61    1
    54    36    37    1
    55    36    60    1
    56    37    38    1
    57    38    39    1
    58    39    40    1
    59    40    41    1
    60    41    42    1
    61    45   100    1
    62    47   101    1
    63    47   102    1
    64    47   103    1
    65    48   104    1
    66    49   105    1
    67    49   106    1
    68    49   107    1
    69    50   108    1
    70    51    59    1
    71    52   109    1
    72    52   110    1
    73    52   111    1
    74    53    54    1
    75    54    55    2
    76    54    56    1
    77    56   112    1
    78    56   113    1
    79    56   114    1
    80    57   115    1
    81    57   116    1
    82    57   117    1
    83    58   118    1
    84    58   119    1
    85    58   120    1
    86    59   121    1
    87    59   122    1
    88    59   123    1
    89    60    61    2
    90     1    47    1
    91     1    62    1
    92     2    63    1
    93     3    64    1
    94     4    65    1
    95     5     6    1
    96     7     8    2
    97     9    78    1
    98    15    79    1
    99    18    80    1
   100    18    81    1
   101    19    82    1
   102    19    83    1
   103    20    23    1
   104    21    84    1
   105    21    85    1
   106    22    86    1
   107    22    87    1
   108    27    45    1
   109    28    34    1
   110    32    58    1
   111    33    46    2
   112    36    51    1
   113    36    66    1
   114    37    52    1
   115    37    67    1
   116    38    53    1
   117    38    68    1
   118    42    48    1
   119    42    72    1
   120    43    44    2
   121    60    73    1
   122    61    74    1
   123    39    69    1
   124    39    57    1
   125    40    70    1
   126    40    50    1
   127    41    71    1
   128    41    49    1
