@<TRIPOS>MOLECULE
*****
 123 128 0 0 0
SMALL
GASTEIGER

@<TRIPOS>ATOM
     1 C         -2.611625   4.544076   -0.559404 C.3        1 UNL1     0.0009
     2 C         -3.72216   5.416614   -1.760414 C.2        1 UNL1     -0.0787
     3 C         -3.963963   6.502737   -2.686651 C.2        1 UNL1     -0.0649
     4 C         -5.301563   6.728026   -3.69978 C.2        1 UNL1     -0.0542
     5 C         -5.782185   7.384858   -4.859371 C.2        1 UNL1     0.0115
     6 C         -5.453101   8.480451   -5.910419 C.3        1 UNL1     -0.0348
     7 C         -7.111602   6.832999   -5.570068 C.2        1 UNL1     0.2441
     8 O         -8.20518   7.365948   -5.441309 O.2        1 UNL1     -0.2702
     9 N         -6.890109   5.855298   -6.55556 N.am        1 UNL1     -0.2772
     10 C         -6.867524   4.600748   -5.990834 C.2        1 UNL1     0.1049
     11 C         -5.721159   4.224931   -5.453405 C.2        1 UNL1     0.0801
     12 C         -8.131405   3.101602   -4.43761 C.ar        1 UNL1     0.0753
     13 C         -6.889878   2.889651   -3.757686 C.ar        1 UNL1     0.0305
     14 C         -5.620697   3.341102   -4.323746 C.2        1 UNL1     0.0924
     15 N         -4.500541   4.779917   -5.546197 N.pl3        1 UNL1     -0.3170
     16 C         -3.563125   3.887428   -4.91773 C.3        1 UNL1     0.1275
     17 N         -4.379562   3.146459   -3.887139 N.2        1 UNL1     -0.2557
     18 C         -3.156483   2.851012   -5.960892 C.3        1 UNL1     0.0016
     19 C         -2.611406   3.576687   -7.180677 C.3        1 UNL1     0.0026
     20 N         -1.470738   4.385204   -6.772996 N.3        1 UNL1     -0.3018
     21 C         -1.74968   5.371109   -5.726787 C.3        1 UNL1     0.0026
     22 C         -2.291732   4.619875   -4.509527 C.3        1 UNL1     0.0016
     23 C         -0.698661   4.878116   -7.896196 C.3        1 UNL1     0.0012
     24 C         -1.319511   4.412066   -9.222507 C.3        1 UNL1     -0.0339
     25 C         -0.29477   3.663796   -10.09087 C.3        1 UNL1     -0.0615
     26 C         -2.549152   3.562646   -8.951861 C.3        1 UNL1     -0.0615
     27 C         -9.32106   2.563684   -3.952344 C.ar        1 UNL1     0.1347
     28 C         -9.387923   1.766967   -2.823264 C.ar        1 UNL1     0.0342
     29 C         -8.161274   1.612415   -2.143109 C.ar        1 UNL1     0.1435
     30 C         -6.967983   2.175298   -2.597465 C.ar        1 UNL1     0.0774
     31 O         -8.040444   0.776313   -1.088908 O.3        1 UNL1     -0.4436
     32 C         -6.630657   0.526686   -0.983745 C.3        1 UNL1     0.3143
     33 C         -5.967392   1.709359   -1.66019 C.2        1 UNL1     0.2504
     34 C         -10.574762   0.953872   -2.386928 C.3        1 UNL1     -0.0327
     35 O         -6.288443   0.595128   0.406024 O.2        1 UNL1     -0.4528
     36 C         -3.351029   -1.763413   0.871826 C.3        1 UNL1     0.0854
     37 C         -1.947851   -1.761526   0.151679 C.3        1 UNL1     0.0236
     38 C         -0.682865   -1.717908   1.136388 C.3        1 UNL1     0.1131
     39 C         -0.612546   -0.623325   2.276219 C.3        1 UNL1     0.0200
     40 C         -1.035912   0.95807   1.956238 C.3        1 UNL1     0.0661
     41 C         -0.474271   1.89376   0.657526 C.3        1 UNL1     0.0091
     42 C         -1.301734   3.225101   -0.29549 C.3        1 UNL1     0.0661
     43 C         -8.09656   3.838277   -5.725382 C.2        1 UNL1     0.2131
     44 O         -8.96605   3.752583   -6.573545 O.2        1 UNL1     -0.2851
     45 O         -10.492223   2.855315   -4.648596 O.3        1 UNL1     -0.5056
     46 O         -4.868975   2.175761   -1.455734 O.2        1 UNL1     -0.2836
     47 C         -2.545433   5.326142   0.779988 C.3        1 UNL1     -0.0566
     48 O         -0.14697   4.152514   -0.221037 O.3        1 UNL1     -0.3909
     49 C         0.194774   0.982433   -0.347142 C.3        1 UNL1     -0.0577
     50 O         -2.426535   1.148121   2.122881 O.3        1 UNL1     -0.3910
     51 O         -3.328503   -1.552058   2.265473 O.3        1 UNL1     -0.3753
     52 C         -1.984042   -0.960969   -1.190986 C.3        1 UNL1     -0.0564
     53 O         0.613074   -2.067601   0.465134 O.3        1 UNL1     -0.4608
     54 C         1.065402   -1.538143   -0.715122 C.2        1 UNL1     0.3042
     55 O         1.949081   -1.986211   -1.444632 O.2        1 UNL1     -0.2512
     56 C         0.324702   -0.303353   -1.14334 C.3        1 UNL1     0.0332
     57 C         -1.173493   -1.28805   3.618476 C.3        1 UNL1     -0.0567
     58 C         -6.348619   -0.7463   -1.815305 C.3        1 UNL1     0.0210
     59 C         -2.083244   -1.847177   2.896424 C.3        1 UNL1     0.0372
     60 C         -4.347768   -0.811897   0.309431 C.2        1 UNL1     -0.0208
     61 C         -5.179875   0.030976   0.922546 C.2        1 UNL1     0.0882
     62 H         -3.382993   3.774565   -0.43468 H        1 UNL1     0.0365
     63 H         -4.630815   4.817823   -1.669501 H        1 UNL1     0.0576
     64 H         -3.183851   7.224584   -2.938585 H        1 UNL1     0.0615
     65 H         -6.041586   6.020785   -3.315516 H        1 UNL1     0.0622
     66 H         -3.75543   -2.768339   0.685737 H        1 UNL1     0.0645
     67 H         -1.862057   -2.777685   -0.270953 H        1 UNL1     0.0362
     68 H         -0.824225   -2.675716   1.659974 H        1 UNL1     0.0741
     69 H         0.413103   -0.531723   2.607975 H        1 UNL1     0.0359
     70 H         -0.581386   1.458245   2.832761 H        1 UNL1     0.0600
     71 H         0.403274   2.375507   1.131648 H        1 UNL1     0.0348
     72 H         -1.859414   3.136086   0.648112 H        1 UNL1     0.0602
     73 H         -4.425182   -0.965902   -0.738203 H        1 UNL1     0.0628
     74 H         -5.128056   0.287856   1.981114 H        1 UNL1     0.1022
     75 H         -4.813772   9.277134   -5.459212 H        1 UNL1     0.0279
     76 H         -4.865008   8.167014   -6.770054 H        1 UNL1     0.0279
     77 H         -6.338314   9.058591   -6.213495 H        1 UNL1     0.0279
     78 H         -5.984553   6.010334   -6.993748 H        1 UNL1     0.1553
     79 H         -4.236251   5.427172   -6.26602 H        1 UNL1     0.1484
     80 H         -2.405895   2.180584   -5.525106 H        1 UNL1     0.0317
     81 H         -4.009531   2.224908   -6.243655 H        1 UNL1     0.0317
     82 H         -3.381862   4.194749   -7.664734 H        1 UNL1     0.0428
     83 H         -2.329211   2.819162   -7.912504 H        1 UNL1     0.0428
     84 H         -0.860821   5.909096   -5.382826 H        1 UNL1     0.0428
     85 H         -2.421299   6.164969   -6.081797 H        1 UNL1     0.0428
     86 H         -2.357998   5.350152   -3.724485 H        1 UNL1     0.0317
     87 H         -1.537783   3.915294   -4.137743 H        1 UNL1     0.0317
     88 H         -0.717263   5.975458   -7.868127 H        1 UNL1     0.0429
     89 H         0.352888   4.572285   -7.822138 H        1 UNL1     0.0429
     90 H         -1.676309   5.286805   -9.779051 H        1 UNL1     0.0308
     91 H         0.496733   4.334286   -10.438821 H        1 UNL1     0.0233
     92 H         0.153916   2.838002   -9.533776 H        1 UNL1     0.0233
     93 H         -0.749959   3.218601   -10.983864 H        1 UNL1     0.0233
     94 H         -2.27392   2.672261   -8.376277 H        1 UNL1     0.0233
     95 H         -3.275043   4.132382   -8.364965 H        1 UNL1     0.0233
     96 H         -3.023615   3.239404   -9.88265 H        1 UNL1     0.0233
     97 H         -10.624778   0.853133   -1.306844 H        1 UNL1     0.0280
     98 H         -11.524854   1.412741   -2.690278 H        1 UNL1     0.0280
     99 H         -10.512021   -0.055452   -2.825589 H        1 UNL1     0.0280
     100 H         -10.64798   2.309074   -5.398918 H        1 UNL1     0.2922
     101 H         -3.363102   5.013499   1.429087 H        1 UNL1     0.0236
     102 H         -2.521088   6.406905   0.644551 H        1 UNL1     0.0236
     103 H         -1.630703   5.093747   1.350474 H        1 UNL1     0.0236
     104 H         -0.088374   4.477346   0.698758 H        1 UNL1     0.2098
     105 H         -0.198362   1.062342   -1.357524 H        1 UNL1     0.0234
     106 H         1.283128   1.03949   -0.359645 H        1 UNL1     0.0234
     107 H         0.0   0.0   0.0 H        1 UNL1     0.0234
     108 H         -2.873686   0.66808   1.399427 H        1 UNL1     0.2098
     109 H         -1.793532   -1.602214   -2.062893 H        1 UNL1     0.0234
     110 H         -2.919222   -0.410156   -1.338587 H        1 UNL1     0.0234
     111 H         -1.209544   -0.182961   -1.21931 H        1 UNL1     0.0234
     112 H         0.678301   0.559876   -0.57137 H        1 UNL1     0.0342
     113 H         0.411133   -0.124577   -2.214046 H        1 UNL1     0.0342
     114 H         -0.740469   -0.445545   -0.914522 H        1 UNL1     0.0342
     115 H         -1.891652   -2.092176   3.406772 H        1 UNL1     0.0234
     116 H         -0.39836   -1.702217   4.266306 H        1 UNL1     0.0234
     117 H         -1.792587   -0.603166   4.223122 H        1 UNL1     0.0234
     118 H         -5.266948   -0.924914   -1.946037 H        1 UNL1     0.0309
     119 H         -6.811869   -1.644942   -1.395727 H        1 UNL1     0.0309
     120 H         -6.7176   -0.666902   -2.843729 H        1 UNL1     0.0309
     121 H         -2.281483   -2.01523   3.954637 H        1 UNL1     0.0524
     122 H         -1.618238   -2.763484   2.496187 H        1 UNL1     0.0524
     123 H         -1.392759   -1.017888   2.771502 H        1 UNL1     0.0524
@<TRIPOS>BOND
     1     1     2    1
     2     1    42    1
     3     2     3    2
     4     3     4    1
     5     4     5    2
     6     5     7    1
     7     6    75    1
     8     6    76    1
     9     6    77    1
    10     7     9   am
    11     9    10    1
    12    10    11    2
    13    10    43    1
    14    11    14    1
    15    11    15    1
    16    12    13   ar
    17    12    27   ar
    18    12    43    1
    19    13    14    1
    20    13    30   ar
    21    14    17    2
    22    15    16    1
    23    16    17    1
    24    16    18    1
    25    16    22    1
    26    18    19    1
    27    19    20    1
    28    20    21    1
    29    21    22    1
    30    23    24    1
    31    23    88    1
    32    23    89    1
    33    24    25    1
    34    24    26    1
    35    24    90    1
    36    25    91    1
    37    25    92    1
    38    25    93    1
    39    26    94    1
    40    26    95    1
    41    26    96    1
    42    27    28   ar
    43    28    29   ar
    44    29    30   ar
    45    29    31    1
    46    30    33    1
    47    31    32    1
    48    32    33    1
    49    32    35    1
    50    34    97    1
    51    34    98    1
    52    34    99    1
    53    35    61    1
    54    36    37    1
    55    36    60    1
    56    37    38    1
    57    38    39    1
    58    39    40    1
    59    40    41    1
    60    41    42    1
    61    45   100    1
    62    47   101    1
    63    47   102    1
    64    47   103    1
    65    48   104    1
    66    49   105    1
    67    49   106    1
    68    49   107    1
    69    50   108    1
    70    51    59    1
    71    52   109    1
    72    52   110    1
    73    52   111    1
    74    53    54    1
    75    54    55    2
    76    54    56    1
    77    56   112    1
    78    56   113    1
    79    56   114    1
    80    57   115    1
    81    57   116    1
    82    57   117    1
    83    58   118    1
    84    58   119    1
    85    58   120    1
    86    59   121    1
    87    59   122    1
    88    59   123    1
    89    60    61    2
    90     1    47    1
    91     1    62    1
    92     2    63    1
    93     3    64    1
    94     4    65    1
    95     5     6    1
    96     7     8    2
    97     9    78    1
    98    15    79    1
    99    18    80    1
   100    18    81    1
   101    19    82    1
   102    19    83    1
   103    20    23    1
   104    21    84    1
   105    21    85    1
   106    22    86    1
   107    22    87    1
   108    27    45    1
   109    28    34    1
   110    32    58    1
   111    33    46    2
   112    36    51    1
   113    36    66    1
   114    37    52    1
   115    37    67    1
   116    38    53    1
   117    38    68    1
   118    42    48    1
   119    42    72    1
   120    43    44    2
   121    60    73    1
   122    61    74    1
   123    39    69    1
   124    39    57    1
   125    40    70    1
   126    40    50    1
   127    41    71    1
   128    41    49    1
