@<TRIPOS>MOLECULE
*****
 123 128 0 0 0
SMALL
GASTEIGER

@<TRIPOS>ATOM
     1 C         5.166973   1.74968   0.490184 C.3        1 UNL1     0.0009
     2 C         6.603242   2.556301   -0.360423 C.2        1 UNL1     -0.0787
     3 C         7.884936   2.458546   -1.026569 C.2        1 UNL1     -0.0649
     4 C         8.761909   3.694046   -1.782092 C.2        1 UNL1     -0.0542
     5 C         9.78159   3.987145   -2.720932 C.2        1 UNL1     0.0115
     6 C         10.909647   3.362156   -3.587073 C.3        1 UNL1     -0.0348
     7 C         9.87645   5.470583   -3.327069 C.2        1 UNL1     0.2441
     8 O         10.700287   6.292292   -2.949427 O.2        1 UNL1     -0.2702
     9 N         9.12583   5.677716   -4.49746 N.am        1 UNL1     -0.2772
     10 C         7.843135   6.06406   -4.18321 C.2        1 UNL1     0.1049
     11 C         6.99763   5.092402   -3.891277 C.2        1 UNL1     0.0801
     12 C         6.544857   7.670077   -2.771643 C.ar        1 UNL1     0.0753
     13 C         5.786159   6.541892   -2.324224 C.ar        1 UNL1     0.0305
     14 C         5.90315   5.236387   -2.969996 C.2        1 UNL1     0.0924
     15 N         7.120463   3.76349   -4.05076 N.pl3        1 UNL1     -0.3170
     16 C         5.850818   3.163986   -3.736356 C.3        1 UNL1     0.1275
     17 N         5.21453   4.118832   -2.755984 N.2        1 UNL1     -0.2557
     18 C         4.997572   3.223226   -4.999749 C.3        1 UNL1     0.0016
     19 C         5.752242   2.539585   -6.128774 C.3        1 UNL1     0.0026
     20 N         6.022774   1.161434   -5.743367 N.3        1 UNL1     -0.3018
     21 C         6.786542   1.000859   -4.504318 C.3        1 UNL1     0.0026
     22 C         6.008004   1.690925   -3.382898 C.3        1 UNL1     0.0016
     23 C         6.467103   0.342281   -6.853414 C.3        1 UNL1     0.0012
     24 C         5.311406   0.09284   -7.835198 C.3        1 UNL1     -0.0339
     25 C         5.346559   1.085308   -9.009007 C.3        1 UNL1     -0.0615
     26 C         5.340643   -1.346523   -8.319099 C.3        1 UNL1     -0.0615
     27 C         6.340112   8.937586   -2.231627 C.ar        1 UNL1     0.1347
     28 C         5.381296   9.206689   -1.27126 C.ar        1 UNL1     0.0342
     29 C         4.680099   8.071978   -0.810914 C.ar        1 UNL1     0.1435
     30 C         4.899639   6.790129   -1.316764 C.ar        1 UNL1     0.0774
     31 O         3.639348   8.185113   0.042927 O.3        1 UNL1     -0.4436
     32 C         2.917869   6.952189   -0.099337 C.3        1 UNL1     0.3143
     33 C         3.931198   5.959424   -0.632062 C.2        1 UNL1     0.2504
     34 C         4.934324   10.572589   -0.830085 C.3        1 UNL1     -0.0327
     35 O         2.557727   6.515071   1.216899 O.2        1 UNL1     -0.4528
     36 C         -0.685061   4.582351   0.820668 C.3        1 UNL1     0.0854
     37 C         -0.990399   3.321941   -0.076917 C.3        1 UNL1     0.0236
     38 C         -1.59046   2.060573   0.710878 C.3        1 UNL1     0.1131
     39 C         -0.86419   1.529443   2.011917 C.3        1 UNL1     0.0200
     40 C         0.797044   1.384214   2.052527 C.3        1 UNL1     0.0661
     41 C         1.756197   0.615876   0.883214 C.3        1 UNL1     0.0091
     42 C         3.463536   0.978915   0.318768 C.3        1 UNL1     0.0661
     43 C         7.494588   7.462852   -3.89295 C.2        1 UNL1     0.2131
     44 O         7.894069   8.361194   -4.611375 O.2        1 UNL1     -0.2851
     45 O         7.152032   9.972971   -2.690105 O.3        1 UNL1     -0.5056
     46 O         3.947464   4.755859   -0.5016 O.2        1 UNL1     -0.2836
     47 C         5.563873   1.319912   1.928152 C.3        1 UNL1     -0.0566
     48 O         3.912402   -0.432123   0.400051 O.3        1 UNL1     -0.3909
     49 C         0.921664   0.383439   -0.356553 C.3        1 UNL1     -0.0577
     50 O         1.397128   2.602094   2.445453 O.3        1 UNL1     -0.3910
     51 O         -0.808672   4.392298   2.212082 O.3        1 UNL1     -0.3753
     52 C         0.053722   3.161967   -1.229813 C.3        1 UNL1     -0.0564
     53 O         -2.193145   1.0217   -0.189033 O.3        1 UNL1     -0.4608
     54 C         -2.427192   -0.285183   0.150389 C.2        1 UNL1     0.3042
     55 O         -1.858038   -1.284091   -0.287886 O.2        1 UNL1     -0.2512
     56 C         -3.466838   -0.451301   1.221955 C.3        1 UNL1     0.0332
     57 C         -1.584948   2.197977   3.273561 C.3        1 UNL1     -0.0567
     58 C         1.842282   7.197344   -1.183099 C.3        1 UNL1     0.0210
     59 C         -1.121864   5.571055   2.952559 C.3        1 UNL1     0.0372
     60 C         0.643739   5.211751   0.589787 C.2        1 UNL1     -0.0208
     61 C         1.556867   5.646943   1.459011 C.2        1 UNL1     0.0882
     62 H         4.69089   2.733738   0.57785 H        1 UNL1     0.0365
     63 H         6.336824   3.610022   -0.25477 H        1 UNL1     0.0576
     64 H         8.342707   1.491841   -1.248004 H        1 UNL1     0.0615
     65 H         8.27476   4.609262   -1.434889 H        1 UNL1     0.0622
     66 H         -1.429956   5.328812   0.51087 H        1 UNL1     0.0645
     67 H         -1.856203   3.631291   -0.687855 H        1 UNL1     0.0362
     68 H         -2.537502   2.497179   1.063029 H        1 UNL1     0.0741
     69 H         -1.195455   0.518232   2.207174 H        1 UNL1     0.0359
     70 H         0.90923   0.723686   2.933536 H        1 UNL1     0.0600
     71 H         1.800114   -0.405387   1.309889 H        1 UNL1     0.0348
     72 H         3.357876   1.466858   1.298596 H        1 UNL1     0.0602
     73 H         0.761262   5.409279   -0.446755 H        1 UNL1     0.0628
     74 H         1.539707   5.436012   2.528801 H        1 UNL1     0.1022
     75 H         10.944023   2.254876   -3.446421 H        1 UNL1     0.0279
     76 H         10.80307   3.458144   -4.665264 H        1 UNL1     0.0279
     77 H         11.915279   3.654687   -3.251172 H        1 UNL1     0.0279
     78 H         9.063827   4.807884   -5.022461 H        1 UNL1     0.1553
     79 H         7.785616   3.335779   -4.668472 H        1 UNL1     0.1484
     80 H         4.036448   2.73206   -4.805423 H        1 UNL1     0.0317
     81 H         4.770676   4.260002   -5.270425 H        1 UNL1     0.0317
     82 H         6.682723   3.071127   -6.376932 H        1 UNL1     0.0428
     83 H         5.12679   2.594826   -7.020294 H        1 UNL1     0.0428
     84 H         6.907163   -0.042146   -4.195442 H        1 UNL1     0.0428
     85 H         7.81653   1.369115   -4.60838 H        1 UNL1     0.0428
     86 H         6.52477   1.44044   -2.475045 H        1 UNL1     0.0317
     87 H         5.028691   1.21307   -3.257607 H        1 UNL1     0.0317
     88 H         7.26289   0.884358   -7.38083 H        1 UNL1     0.0429
     89 H         6.899994   -0.603494   -6.502858 H        1 UNL1     0.0429
     90 H         4.358522   0.211603   -7.305933 H        1 UNL1     0.0308
     91 H         6.299564   1.034844   -9.544111 H        1 UNL1     0.0233
     92 H         4.531479   0.885346   -9.708484 H        1 UNL1     0.0233
     93 H         5.220335   2.124314   -8.681334 H        1 UNL1     0.0233
     94 H         4.645908   -1.477921   -9.155708 H        1 UNL1     0.0233
     95 H         6.344084   -1.602146   -8.670844 H        1 UNL1     0.0233
     96 H         5.058105   -2.040991   -7.52295 H        1 UNL1     0.0233
     97 H         4.13494   10.522613   -0.096793 H        1 UNL1     0.0280
     98 H         5.744699   11.13919   -0.353104 H        1 UNL1     0.0280
     99 H         4.569062   11.140639   -1.70129 H        1 UNL1     0.0280
     100 H         6.684764   10.724093   -3.011197 H        1 UNL1     0.2922
     101 H         4.701309   0.885984   2.433469 H        1 UNL1     0.0236
     102 H         6.014686   2.125206   2.507162 H        1 UNL1     0.0236
     103 H         6.320278   0.517389   1.926613 H        1 UNL1     0.0236
     104 H         4.331929   -0.558331   1.273572 H        1 UNL1     0.2098
     105 H         0.708655   1.282366   -0.929588 H        1 UNL1     0.0234
     106 H         1.290991   -0.404354   -1.012986 H        1 UNL1     0.0234
     107 H         0.0   -0.0   0.0 H        1 UNL1     0.0234
     108 H         1.203619   3.258811   1.749002 H        1 UNL1     0.2098
     109 H         1.08015   3.060993   -0.850389 H        1 UNL1     0.0234
     110 H         -0.172112   2.32737   -1.902263 H        1 UNL1     0.0234
     111 H         0.065739   4.039711   -1.889637 H        1 UNL1     0.0234
     112 H         -3.589947   -1.512261   1.45977 H        1 UNL1     0.0342
     113 H         -3.229747   0.124408   2.11537 H        1 UNL1     0.0342
     114 H         -4.424454   -0.0804   0.831353 H        1 UNL1     0.0342
     115 H         -2.654511   1.949483   3.311957 H        1 UNL1     0.0234
     116 H         -1.148121   1.918075   4.234231 H        1 UNL1     0.0234
     117 H         -1.623778   3.299837   3.225206 H        1 UNL1     0.0234
     118 H         0.940625   7.682566   -0.770085 H        1 UNL1     0.0309
     119 H         2.210831   7.786898   -2.028557 H        1 UNL1     0.0309
     120 H         1.45486   6.265445   -1.609217 H        1 UNL1     0.0309
     121 H         -0.300998   6.274415   2.81537 H        1 UNL1     0.0524
     122 H         -2.041874   6.060002   2.591243 H        1 UNL1     0.0524
     123 H         -1.239443   5.333043   4.005944 H        1 UNL1     0.0524
@<TRIPOS>BOND
     1     1     2    1
     2     1    42    1
     3     2     3    2
     4     3     4    1
     5     4     5    2
     6     5     7    1
     7     6    75    1
     8     6    76    1
     9     6    77    1
    10     7     9   am
    11     9    10    1
    12    10    11    2
    13    10    43    1
    14    11    14    1
    15    11    15    1
    16    12    13   ar
    17    12    27   ar
    18    12    43    1
    19    13    14    1
    20    13    30   ar
    21    14    17    2
    22    15    16    1
    23    16    17    1
    24    16    18    1
    25    16    22    1
    26    18    19    1
    27    19    20    1
    28    20    21    1
    29    21    22    1
    30    23    24    1
    31    23    88    1
    32    23    89    1
    33    24    25    1
    34    24    26    1
    35    24    90    1
    36    25    91    1
    37    25    92    1
    38    25    93    1
    39    26    94    1
    40    26    95    1
    41    26    96    1
    42    27    28   ar
    43    28    29   ar
    44    29    30   ar
    45    29    31    1
    46    30    33    1
    47    31    32    1
    48    32    33    1
    49    32    35    1
    50    34    97    1
    51    34    98    1
    52    34    99    1
    53    35    61    1
    54    36    37    1
    55    36    60    1
    56    37    38    1
    57    38    39    1
    58    39    40    1
    59    40    41    1
    60    41    42    1
    61    45   100    1
    62    47   101    1
    63    47   102    1
    64    47   103    1
    65    48   104    1
    66    49   105    1
    67    49   106    1
    68    49   107    1
    69    50   108    1
    70    51    59    1
    71    52   109    1
    72    52   110    1
    73    52   111    1
    74    53    54    1
    75    54    55    2
    76    54    56    1
    77    56   112    1
    78    56   113    1
    79    56   114    1
    80    57   115    1
    81    57   116    1
    82    57   117    1
    83    58   118    1
    84    58   119    1
    85    58   120    1
    86    59   121    1
    87    59   122    1
    88    59   123    1
    89    60    61    2
    90     1    47    1
    91     1    62    1
    92     2    63    1
    93     3    64    1
    94     4    65    1
    95     5     6    1
    96     7     8    2
    97     9    78    1
    98    15    79    1
    99    18    80    1
   100    18    81    1
   101    19    82    1
   102    19    83    1
   103    20    23    1
   104    21    84    1
   105    21    85    1
   106    22    86    1
   107    22    87    1
   108    27    45    1
   109    28    34    1
   110    32    58    1
   111    33    46    2
   112    36    51    1
   113    36    66    1
   114    37    52    1
   115    37    67    1
   116    38    53    1
   117    38    68    1
   118    42    48    1
   119    42    72    1
   120    43    44    2
   121    60    73    1
   122    61    74    1
   123    39    69    1
   124    39    57    1
   125    40    70    1
   126    40    50    1
   127    41    71    1
   128    41    49    1
