@<TRIPOS>MOLECULE
*****
 123 128 0 0 0
SMALL
GASTEIGER

@<TRIPOS>ATOM
     1 C         5.165849   1.752417   0.492251 C.3        1 UNL1     0.0009
     2 C         6.602144   2.559492   -0.357881 C.2        1 UNL1     -0.0787
     3 C         7.884224   2.46217   -1.023347 C.2        1 UNL1     -0.0649
     4 C         8.760961   3.697874   -1.778812 C.2        1 UNL1     -0.0542
     5 C         9.78097   3.99119   -2.717228 C.2        1 UNL1     0.0115
     6 C         10.909777   3.366495   -3.582603 C.3        1 UNL1     -0.0348
     7 C         9.875395   5.474486   -3.32378 C.2        1 UNL1     0.2441
     8 O         10.69863   6.296724   -2.945978 O.2        1 UNL1     -0.2702
     9 N         9.125264   5.680878   -4.494616 N.am        1 UNL1     -0.2772
     10 C         7.842216   6.066678   -4.181134 C.2        1 UNL1     0.1049
     11 C         6.99705   5.094688   -3.889326 C.2        1 UNL1     0.0801
     12 C         6.542422   7.672485   -2.770726 C.ar        1 UNL1     0.0753
     13 C         5.784062   6.54406   -2.323339 C.ar        1 UNL1     0.0305
     14 C         5.902033   5.238413   -2.968644 C.2        1 UNL1     0.0924
     15 N         7.120629   3.765789   -4.048332 N.pl3        1 UNL1     -0.3170
     16 C         5.851125   3.165747   -3.734383 C.3        1 UNL1     0.1275
     17 N         5.213863   4.120581   -2.754632 N.2        1 UNL1     -0.2557
     18 C         4.998488   3.224167   -4.998227 C.3        1 UNL1     0.0016
     19 C         5.754072   2.540551   -6.126656 C.3        1 UNL1     0.0026
     20 N         6.025098   1.162655   -5.740682 N.3        1 UNL1     -0.3018
     21 C         6.788319   1.002849   -4.501196 C.3        1 UNL1     0.0026
     22 C         6.008868   1.692875   -3.380386 C.3        1 UNL1     0.0016
     23 C         6.470398   0.343378   -6.850248 C.3        1 UNL1     0.0012
     24 C         5.315323   0.093053   -7.832539 C.3        1 UNL1     -0.0339
     25 C         5.39052   1.039464   -9.041964 C.3        1 UNL1     -0.0615
     26 C         5.303735   -1.363589   -8.262467 C.3        1 UNL1     -0.0615
     27 C         6.33677   8.94006   -2.231209 C.ar        1 UNL1     0.1347
     28 C         5.377333   9.208983   -1.271412 C.ar        1 UNL1     0.0342
     29 C         4.676471   8.074066   -0.811066 C.ar        1 UNL1     0.1435
     30 C         4.896908   6.792168   -1.316405 C.ar        1 UNL1     0.0774
     31 O         3.635232   8.186946   0.042213 O.3        1 UNL1     -0.4436
     32 C         2.914442   6.953617   -0.100031 C.3        1 UNL1     0.3143
     33 C         3.928536   5.961193   -0.631934 C.2        1 UNL1     0.2504
     34 C         4.929455   10.574797   -0.830889 C.3        1 UNL1     -0.0327
     35 O         2.553853   6.516729   1.216159 O.2        1 UNL1     -0.4528
     36 C         -0.687768   4.582263   0.818891 C.3        1 UNL1     0.0854
     37 C         -0.992021   3.321421   -0.078455 C.3        1 UNL1     0.0236
     38 C         -1.59185   2.059999   0.709431 C.3        1 UNL1     0.1131
     39 C         -0.865973   1.529638   2.011002 C.3        1 UNL1     0.0200
     40 C         0.795313   1.385253   2.052497 C.3        1 UNL1     0.0661
     41 C         1.755442   0.61703   0.88391 C.3        1 UNL1     0.0091
     42 C         3.462884   0.980747   0.320214 C.3        1 UNL1     0.0661
     43 C         7.492823   7.465386   -3.891488 C.2        1 UNL1     0.2131
     44 O         7.892218   8.363703   -4.60999 O.2        1 UNL1     -0.2851
     45 O         7.148403   9.975709   -2.6896 O.3        1 UNL1     -0.5056
     46 O         3.945338   4.757677   -0.501087 O.2        1 UNL1     -0.2836
     47 C         5.562236   1.323297   1.930554 C.3        1 UNL1     -0.0566
     48 O         3.912414   -0.430041   0.402164 O.3        1 UNL1     -0.3909
     49 C         0.921652   0.383789   -0.356206 C.3        1 UNL1     -0.0577
     50 O         1.394589   2.603555   2.445347 O.3        1 UNL1     -0.3910
     51 O         -0.811988   4.392582   2.210301 O.3        1 UNL1     -0.3753
     52 C         0.052763   3.16161   -1.230772 C.3        1 UNL1     -0.0564
     53 O         -2.19356   1.020544   -0.190461 O.3        1 UNL1     -0.4608
     54 C         -2.414628   -0.289684   0.144744 C.2        1 UNL1     0.3042
     55 O         -1.841189   -1.28206   -0.302688 O.2        1 UNL1     -0.2512
     56 C         -3.444325   -0.468892   1.223782 C.3        1 UNL1     0.0332
     57 C         -1.587703   2.198205   3.272073 C.3        1 UNL1     -0.0567
     58 C         1.83928   7.197895   -1.184413 C.3        1 UNL1     0.0210
     59 C         -1.126144   5.571414   2.950252 C.3        1 UNL1     0.0372
     60 C         0.640833   5.212256   0.588486 C.2        1 UNL1     -0.0208
     61 C         1.553304   5.648176   1.458036 C.2        1 UNL1     0.0882
     62 H         4.689229   2.736265   0.57937 H        1 UNL1     0.0365
     63 H         6.335145   3.613112   -0.252691 H        1 UNL1     0.0576
     64 H         8.34259   1.495625   -1.24425 H        1 UNL1     0.0615
     65 H         8.273179   4.612953   -1.432142 H        1 UNL1     0.0622
     66 H         -1.432879   5.328255   0.508484 H        1 UNL1     0.0645
     67 H         -1.857671   3.630147   -0.689928 H        1 UNL1     0.0362
     68 H         -2.539288   2.49624   1.060966 H        1 UNL1     0.0741
     69 H         -1.19683   0.518322   2.206408 H        1 UNL1     0.0359
     70 H         0.907384   0.725056   2.93377 H        1 UNL1     0.0600
     71 H         1.799654   -0.404077   1.310926 H        1 UNL1     0.0348
     72 H         3.356484   1.468942   1.299836 H        1 UNL1     0.0602
     73 H         0.758782   5.40952   -0.448058 H        1 UNL1     0.0628
     74 H         1.535708   5.43757   2.527883 H        1 UNL1     0.1022
     75 H         10.936391   2.257852   -3.451316 H        1 UNL1     0.0279
     76 H         10.809707   3.47241   -4.660488 H        1 UNL1     0.0279
     77 H         11.915385   3.649728   -3.238753 H        1 UNL1     0.0279
     78 H         9.063961   4.810852   -5.019376 H        1 UNL1     0.1553
     79 H         7.786308   3.338218   -4.665574 H        1 UNL1     0.1484
     80 H         4.037512   2.73258   -4.804233 H        1 UNL1     0.0317
     81 H         4.771211   4.260745   -5.269341 H        1 UNL1     0.0317
     82 H         6.684412   3.072481   -6.374509 H        1 UNL1     0.0428
     83 H         5.129043   2.595201   -7.01851 H        1 UNL1     0.0428
     84 H         6.909305   -0.039999   -4.191934 H        1 UNL1     0.0428
     85 H         7.818175   1.371588   -4.604853 H        1 UNL1     0.0428
     86 H         6.5253   1.442932   -2.472194 H        1 UNL1     0.0317
     87 H         5.029732   1.214569   -3.255441 H        1 UNL1     0.0317
     88 H         7.266181   0.88569   -7.377431 H        1 UNL1     0.0429
     89 H         6.903584   -0.60207   -6.499178 H        1 UNL1     0.0429
     90 H         4.362424   0.260685   -7.316693 H        1 UNL1     0.0308
     91 H         6.345705   0.93983   -9.566175 H        1 UNL1     0.0233
     92 H         4.575189   0.838643   -9.740903 H        1 UNL1     0.0233
     93 H         5.29399   2.093362   -8.754188 H        1 UNL1     0.0233
     94 H         4.611898   -1.50474   -9.099889 H        1 UNL1     0.0233
     95 H         6.301518   -1.662846   -8.595391 H        1 UNL1     0.0233
     96 H         4.993508   -2.018852   -7.443714 H        1 UNL1     0.0233
     97 H         4.129725   10.52465   -0.097985 H        1 UNL1     0.0280
     98 H         5.739305   11.141952   -0.353675 H        1 UNL1     0.0280
     99 H         4.564349   11.142392   -1.702456 H        1 UNL1     0.0280
     100 H         6.680922   10.726496   -3.011162 H        1 UNL1     0.2922
     101 H         4.696482   0.900509   2.439844 H        1 UNL1     0.0236
     102 H         6.023452   2.125624   2.505476 H        1 UNL1     0.0236
     103 H         6.309871   0.512597   1.929624 H        1 UNL1     0.0236
     104 H         4.326499   -0.557253   1.278134 H        1 UNL1     0.2098
     105 H         0.708484   1.28243   -0.92963 H        1 UNL1     0.0234
     106 H         1.291706   -0.404024   -1.012207 H        1 UNL1     0.0234
     107 H         0.0   -0.0   0.0 H        1 UNL1     0.0234
     108 H         1.210736   3.256963   1.74319 H        1 UNL1     0.2098
     109 H         1.079049   3.061268   -0.850798 H        1 UNL1     0.0234
     110 H         -0.172314   2.32669   -1.903077 H        1 UNL1     0.0234
     111 H         0.064675   4.039154   -1.890864 H        1 UNL1     0.0234
     112 H         -3.557203   -1.531866   1.457642 H        1 UNL1     0.0342
     113 H         -3.204606   0.104568   2.117942 H        1 UNL1     0.0342
     114 H         -4.407916   -0.10376   0.842554 H        1 UNL1     0.0342
     115 H         -2.657161   1.949187   3.310005 H        1 UNL1     0.0234
     116 H         -1.151223   1.918821   4.233051 H        1 UNL1     0.0234
     117 H         -1.62706   3.30003   3.223354 H        1 UNL1     0.0234
     118 H         0.937172   7.682795   -0.772008 H        1 UNL1     0.0309
     119 H         2.207963   7.78737   -2.029869 H        1 UNL1     0.0309
     120 H         1.45254   6.26567   -1.610436 H        1 UNL1     0.0309
     121 H         -0.288567   6.260296   2.844122 H        1 UNL1     0.0524
     122 H         -2.025327   6.080185   2.56469 H        1 UNL1     0.0524
     123 H         -1.280683   5.327759   3.997555 H        1 UNL1     0.0524
@<TRIPOS>BOND
     1     1     2    1
     2     1    42    1
     3     2     3    2
     4     3     4    1
     5     4     5    2
     6     5     7    1
     7     6    75    1
     8     6    76    1
     9     6    77    1
    10     7     9   am
    11     9    10    1
    12    10    11    2
    13    10    43    1
    14    11    14    1
    15    11    15    1
    16    12    13   ar
    17    12    27   ar
    18    12    43    1
    19    13    14    1
    20    13    30   ar
    21    14    17    2
    22    15    16    1
    23    16    17    1
    24    16    18    1
    25    16    22    1
    26    18    19    1
    27    19    20    1
    28    20    21    1
    29    21    22    1
    30    23    24    1
    31    23    88    1
    32    23    89    1
    33    24    25    1
    34    24    26    1
    35    24    90    1
    36    25    91    1
    37    25    92    1
    38    25    93    1
    39    26    94    1
    40    26    95    1
    41    26    96    1
    42    27    28   ar
    43    28    29   ar
    44    29    30   ar
    45    29    31    1
    46    30    33    1
    47    31    32    1
    48    32    33    1
    49    32    35    1
    50    34    97    1
    51    34    98    1
    52    34    99    1
    53    35    61    1
    54    36    37    1
    55    36    60    1
    56    37    38    1
    57    38    39    1
    58    39    40    1
    59    40    41    1
    60    41    42    1
    61    45   100    1
    62    47   101    1
    63    47   102    1
    64    47   103    1
    65    48   104    1
    66    49   105    1
    67    49   106    1
    68    49   107    1
    69    50   108    1
    70    51    59    1
    71    52   109    1
    72    52   110    1
    73    52   111    1
    74    53    54    1
    75    54    55    2
    76    54    56    1
    77    56   112    1
    78    56   113    1
    79    56   114    1
    80    57   115    1
    81    57   116    1
    82    57   117    1
    83    58   118    1
    84    58   119    1
    85    58   120    1
    86    59   121    1
    87    59   122    1
    88    59   123    1
    89    60    61    2
    90     1    47    1
    91     1    62    1
    92     2    63    1
    93     3    64    1
    94     4    65    1
    95     5     6    1
    96     7     8    2
    97     9    78    1
    98    15    79    1
    99    18    80    1
   100    18    81    1
   101    19    82    1
   102    19    83    1
   103    20    23    1
   104    21    84    1
   105    21    85    1
   106    22    86    1
   107    22    87    1
   108    27    45    1
   109    28    34    1
   110    32    58    1
   111    33    46    2
   112    36    51    1
   113    36    66    1
   114    37    52    1
   115    37    67    1
   116    38    53    1
   117    38    68    1
   118    42    48    1
   119    42    72    1
   120    43    44    2
   121    60    73    1
   122    61    74    1
   123    39    69    1
   124    39    57    1
   125    40    70    1
   126    40    50    1
   127    41    71    1
   128    41    49    1
