@<TRIPOS>MOLECULE
*****
 123 128 0 0 0
SMALL
GASTEIGER

@<TRIPOS>ATOM
     1 C         5.167664   1.748023   0.488812 C.3        1 UNL1     0.0009
     2 C         6.603916   2.554315   -0.362134 C.2        1 UNL1     -0.0787
     3 C         7.885373   2.456255   -1.028691 C.2        1 UNL1     -0.0649
     4 C         8.762492   3.691586   -1.784321 C.2        1 UNL1     -0.0542
     5 C         9.781971   3.984496   -2.72344 C.2        1 UNL1     0.0115
     6 C         10.909566   3.359276   -3.590015 C.3        1 UNL1     -0.0348
     7 C         9.877101   5.467986   -3.329408 C.2        1 UNL1     0.2441
     8 O         10.701308   6.28939   -2.951912 O.2        1 UNL1     -0.2702
     9 N         9.12618   5.675507   -4.499538 N.am        1 UNL1     -0.2772
     10 C         7.843702   6.062203   -4.184837 C.2        1 UNL1     0.1049
     11 C         6.997988   5.090766   -3.892772 C.2        1 UNL1     0.0801
     12 C         6.546358   7.668431   -2.772652 C.ar        1 UNL1     0.0753
     13 C         5.787451   6.54042   -2.325148 C.ar        1 UNL1     0.0305
     14 C         5.90384   5.234966   -2.971131 C.2        1 UNL1     0.0924
     15 N         7.120363   3.761839   -4.05247 N.pl3        1 UNL1     -0.3170
     16 C         5.850631   3.162683   -3.737752 C.3        1 UNL1     0.1275
     17 N         5.214942   4.117595   -2.757054 N.2        1 UNL1     -0.2557
     18 C         4.99701   3.222356   -5.000872 C.3        1 UNL1     0.0016
     19 C         5.751119   2.538633   -6.130222 C.3        1 UNL1     0.0026
     20 N         6.021346   1.160347   -5.745083 N.3        1 UNL1     -0.3018
     21 C         6.78545   0.999371   -4.506293 C.3        1 UNL1     0.0026
     22 C         6.007472   1.689527   -3.38454 C.3        1 UNL1     0.0016
     23 C         6.465077   0.341205   -6.855378 C.3        1 UNL1     0.0012
     24 C         5.308999   0.092252   -7.836836 C.3        1 UNL1     -0.0339
     25 C         5.344092   1.084867   -9.010523 C.3        1 UNL1     -0.0615
     26 C         5.337642   -1.347055   -8.320939 C.3        1 UNL1     -0.0615
     27 C         6.342171   8.935931   -2.232403 C.ar        1 UNL1     0.1347
     28 C         5.383736   9.205201   -1.271702 C.ar        1 UNL1     0.0342
     29 C         4.682333   8.070645   -0.81129 C.ar        1 UNL1     0.1435
     30 C         4.901321   6.788796   -1.31738 C.ar        1 UNL1     0.0774
     31 O         3.641882   8.183986   0.04289 O.3        1 UNL1     -0.4436
     32 C         2.91998   6.951303   -0.099315 C.3        1 UNL1     0.3143
     33 C         3.932837   5.958297   -0.632488 C.2        1 UNL1     0.2504
     34 C         4.937323   10.571179   -0.830206 C.3        1 UNL1     -0.0327
     35 O         2.560112   6.51412   1.216975 O.2        1 UNL1     -0.4528
     36 C         -0.683395   4.582452   0.821494 C.3        1 UNL1     0.0854
     37 C         -0.9894   3.322256   -0.076165 C.3        1 UNL1     0.0236
     38 C         -1.589604   2.060968   0.711648 C.3        1 UNL1     0.1131
     39 C         -0.863094   1.52944   2.01239 C.3        1 UNL1     0.0200
     40 C         0.798108   1.383694   2.052464 C.3        1 UNL1     0.0661
     41 C         1.756661   0.615217   0.88275 C.3        1 UNL1     0.0091
     42 C         3.463936   0.977806   0.317822 C.3        1 UNL1     0.0661
     43 C         7.495676   7.461063   -3.894282 C.2        1 UNL1     0.2131
     44 O         7.89521   8.359379   -4.612711 O.2        1 UNL1     -0.2851
     45 O         7.154267   9.971128   -2.690995 O.3        1 UNL1     -0.5056
     46 O         3.948773   4.75471   -0.502191 O.2        1 UNL1     -0.2836
     47 C         5.564879   1.31794   1.926599 C.3        1 UNL1     -0.0566
     48 O         3.912393   -0.433382   0.398777 O.3        1 UNL1     -0.3909
     49 C         0.921671   0.383203   -0.356788 C.3        1 UNL1     -0.0577
     50 O         1.398689   2.601336   2.445366 O.3        1 UNL1     -0.3910
     51 O         -0.806632   4.39225   2.21292 O.3        1 UNL1     -0.3753
     52 C         0.054314   3.162115   -1.229407 C.3        1 UNL1     -0.0564
     53 O         -2.192889   1.022401   -0.188214 O.3        1 UNL1     -0.4608
     54 C         -2.427233   -0.284456   0.151105 C.2        1 UNL1     0.3042
     55 O         -1.858523   -1.283481   -0.28748 O.2        1 UNL1     -0.2512
     56 C         -3.466597   -0.450397   1.222973 C.3        1 UNL1     0.0332
     57 C         -1.583253   2.198027   3.274347 C.3        1 UNL1     -0.0567
     58 C         1.844131   7.196934   -1.18271 C.3        1 UNL1     0.0210
     59 C         -1.11923   5.571006   2.953653 C.3        1 UNL1     0.0372
     60 C         0.645527   5.211474   0.590284 C.2        1 UNL1     -0.0208
     61 C         1.559059   5.646268   1.459282 C.2        1 UNL1     0.0882
     62 H         4.691911   2.732216   0.576758 H        1 UNL1     0.0365
     63 H         6.337856   3.608104   -0.256257 H        1 UNL1     0.0576
     64 H         8.342778   1.489438   -1.250398 H        1 UNL1     0.0615
     65 H         8.275733   4.606905   -1.436845 H        1 UNL1     0.0622
     66 H         -1.428155   5.329183   0.512027 H        1 UNL1     0.0645
     67 H         -1.855298   3.631955   -0.686793 H        1 UNL1     0.0362
     68 H         -2.536402   2.497818   1.064151 H        1 UNL1     0.0741
     69 H         -1.194609   0.518305   2.207615 H        1 UNL1     0.0359
     70 H         0.910365   0.723014   2.93335 H        1 UNL1     0.0600
     71 H         1.800397   -0.406116   1.309275 H        1 UNL1     0.0348
     72 H         3.358731   1.465649   1.297748 H        1 UNL1     0.0602
     73 H         0.762789   5.409104   -0.446268 H        1 UNL1     0.0628
     74 H         1.542167   5.435199   2.529049 H        1 UNL1     0.1022
     75 H         10.951938   2.253522   -3.439854 H        1 UNL1     0.0279
     76 H         10.796736   3.445084   -4.668428 H        1 UNL1     0.0279
     77 H         11.914999   3.661291   -3.262 H        1 UNL1     0.0279
     78 H         9.063746   4.805764   -5.024636 H        1 UNL1     0.1553
     79 H         7.785192   3.334005   -4.670446 H        1 UNL1     0.1484
     80 H         4.035796   2.731459   -4.806312 H        1 UNL1     0.0317
     81 H         4.77035   4.259238   -5.271338 H        1 UNL1     0.0317
     82 H         6.681686   3.069921   -6.378599 H        1 UNL1     0.0428
     83 H         5.125407   2.594186   -7.021541 H        1 UNL1     0.0428
     84 H         6.905845   -0.043712   -4.197595 H        1 UNL1     0.0428
     85 H         7.815519   1.367323   -4.610627 H        1 UNL1     0.0428
     86 H         6.524444   1.438761   -2.476881 H        1 UNL1     0.0317
     87 H         5.028052   1.211956   -3.259008 H        1 UNL1     0.0317
     88 H         7.260868   0.883109   -7.382969 H        1 UNL1     0.0429
     89 H         6.897786   -0.60475   -6.505083 H        1 UNL1     0.0429
     90 H         4.356316   0.211237   -7.307259 H        1 UNL1     0.0308
     91 H         6.296916   1.034181   -9.54593 H        1 UNL1     0.0233
     92 H         4.528734   0.885249   -9.709774 H        1 UNL1     0.0233
     93 H         5.218291   2.123867   -8.682672 H        1 UNL1     0.0233
     94 H         4.642606   -1.478127   -9.157349 H        1 UNL1     0.0233
     95 H         6.340895   -1.60294   -8.67303 H        1 UNL1     0.0233
     96 H         5.055137   -2.041543   -7.524794 H        1 UNL1     0.0233
     97 H         4.138151   10.521352   -0.096671 H        1 UNL1     0.0280
     98 H         5.74802   11.137468   -0.353401 H        1 UNL1     0.0280
     99 H         4.571964   11.139459   -1.701221 H        1 UNL1     0.0280
     100 H         6.687131   10.722436   -3.011841 H        1 UNL1     0.2922
     101 H         4.702338   0.884211   2.432126 H        1 UNL1     0.0236
     102 H         6.01612   2.123018   2.505576 H        1 UNL1     0.0236
     103 H         6.321036   0.515185   1.924718 H        1 UNL1     0.0236
     104 H         4.332152   -0.559836   1.27215 H        1 UNL1     0.2098
     105 H         0.708761   1.282272   -0.929637 H        1 UNL1     0.0234
     106 H         1.290552   -0.404617   -1.013442 H        1 UNL1     0.0234
     107 H         0.0   -0.0   0.0 H        1 UNL1     0.0234
     108 H         1.205166   3.258207   1.749063 H        1 UNL1     0.2098
     109 H         1.079378   3.048383   -0.849907 H        1 UNL1     0.0234
     110 H         -0.178655   2.335293   -1.908991 H        1 UNL1     0.0234
     111 H         0.075189   4.045168   -1.881885 H        1 UNL1     0.0234
     112 H         -3.589958   -1.51135   1.460684 H        1 UNL1     0.0342
     113 H         -3.229051   0.125119   2.116391 H        1 UNL1     0.0342
     114 H         -4.42422   -0.079149   0.832718 H        1 UNL1     0.0342
     115 H         -2.65288   1.949857   3.313042 H        1 UNL1     0.0234
     116 H         -1.146214   1.917862   4.234844 H        1 UNL1     0.0234
     117 H         -1.621759   3.299906   3.226151 H        1 UNL1     0.0234
     118 H         0.942752   7.682379   -0.769351 H        1 UNL1     0.0309
     119 H         2.212599   7.786488   -2.028204 H        1 UNL1     0.0309
     120 H         1.45629   6.265212   -1.608831 H        1 UNL1     0.0309
     121 H         -0.29819   6.27413   2.816302 H        1 UNL1     0.0524
     122 H         -2.039202   6.060284   2.592688 H        1 UNL1     0.0524
     123 H         -1.236555   5.332889   4.007042 H        1 UNL1     0.0524
@<TRIPOS>BOND
     1     1     2    1
     2     1    42    1
     3     2     3    2
     4     3     4    1
     5     4     5    2
     6     5     7    1
     7     6    75    1
     8     6    76    1
     9     6    77    1
    10     7     9   am
    11     9    10    1
    12    10    11    2
    13    10    43    1
    14    11    14    1
    15    11    15    1
    16    12    13   ar
    17    12    27   ar
    18    12    43    1
    19    13    14    1
    20    13    30   ar
    21    14    17    2
    22    15    16    1
    23    16    17    1
    24    16    18    1
    25    16    22    1
    26    18    19    1
    27    19    20    1
    28    20    21    1
    29    21    22    1
    30    23    24    1
    31    23    88    1
    32    23    89    1
    33    24    25    1
    34    24    26    1
    35    24    90    1
    36    25    91    1
    37    25    92    1
    38    25    93    1
    39    26    94    1
    40    26    95    1
    41    26    96    1
    42    27    28   ar
    43    28    29   ar
    44    29    30   ar
    45    29    31    1
    46    30    33    1
    47    31    32    1
    48    32    33    1
    49    32    35    1
    50    34    97    1
    51    34    98    1
    52    34    99    1
    53    35    61    1
    54    36    37    1
    55    36    60    1
    56    37    38    1
    57    38    39    1
    58    39    40    1
    59    40    41    1
    60    41    42    1
    61    45   100    1
    62    47   101    1
    63    47   102    1
    64    47   103    1
    65    48   104    1
    66    49   105    1
    67    49   106    1
    68    49   107    1
    69    50   108    1
    70    51    59    1
    71    52   109    1
    72    52   110    1
    73    52   111    1
    74    53    54    1
    75    54    55    2
    76    54    56    1
    77    56   112    1
    78    56   113    1
    79    56   114    1
    80    57   115    1
    81    57   116    1
    82    57   117    1
    83    58   118    1
    84    58   119    1
    85    58   120    1
    86    59   121    1
    87    59   122    1
    88    59   123    1
    89    60    61    2
    90     1    47    1
    91     1    62    1
    92     2    63    1
    93     3    64    1
    94     4    65    1
    95     5     6    1
    96     7     8    2
    97     9    78    1
    98    15    79    1
    99    18    80    1
   100    18    81    1
   101    19    82    1
   102    19    83    1
   103    20    23    1
   104    21    84    1
   105    21    85    1
   106    22    86    1
   107    22    87    1
   108    27    45    1
   109    28    34    1
   110    32    58    1
   111    33    46    2
   112    36    51    1
   113    36    66    1
   114    37    52    1
   115    37    67    1
   116    38    53    1
   117    38    68    1
   118    42    48    1
   119    42    72    1
   120    43    44    2
   121    60    73    1
   122    61    74    1
   123    39    69    1
   124    39    57    1
   125    40    70    1
   126    40    50    1
   127    41    71    1
   128    41    49    1
