@<TRIPOS>MOLECULE
*****
 123 128 0 0 0
SMALL
GASTEIGER

@<TRIPOS>ATOM
     1 C         -0.958787   -4.605433   2.483475 C.3        1 UNL1     0.0009
     2 C         -2.082623   -6.076188   2.587927 C.2        1 UNL1     -0.0787
     3 C         -3.260821   -6.72079   3.12865 C.2        1 UNL1     -0.0649
     4 C         -3.913646   -8.223273   2.70119 C.2        1 UNL1     -0.0542
     5 C         -5.075894   -9.033049   2.723991 C.2        1 UNL1     0.0115
     6 C         -6.51159   -9.15452   3.304805 C.3        1 UNL1     -0.0348
     7 C         -5.165058   -10.292128   1.732145 C.2        1 UNL1     0.2441
     8 O         -4.980298   -11.443905   2.100654 O.2        1 UNL1     -0.2702
     9 N         -5.724217   -10.011742   0.473226 N.am        1 UNL1     -0.2772
     10 C         -4.748566   -9.597079   -0.403974 C.2        1 UNL1     0.1049
     11 C         -4.413727   -8.321075   -0.341358 C.2        1 UNL1     0.0801
     12 C         -2.478147   -10.19009   -1.270501 C.ar        1 UNL1     0.0753
     13 C         -2.102863   -8.838297   -0.986904 C.ar        1 UNL1     0.0305
     14 C         -3.096369   -7.825952   -0.635969 C.2        1 UNL1     0.0924
     15 N         -5.013484   -7.300895   0.295863 N.pl3        1 UNL1     -0.3170
     16 C         -4.348172   -6.08655   -0.095265 C.3        1 UNL1     0.1275
     17 N         -2.944097   -6.519252   -0.440322 N.2        1 UNL1     -0.2557
     18 C         -4.982559   -5.624653   -1.403664 C.3        1 UNL1     0.0016
     19 C         -6.481253   -5.479504   -1.192863 C.3        1 UNL1     0.0026
     20 N         -6.712447   -4.512708   -0.128493 N.3        1 UNL1     -0.3018
     21 C         -6.08802   -4.839885   1.155023 C.3        1 UNL1     0.0026
     22 C         -4.582575   -4.976472   0.920771 C.3        1 UNL1     0.0016
     23 C         -8.093155   -4.078812   -0.050887 C.3        1 UNL1     0.0012
     24 C         -8.171838   -2.546943   0.043676 C.3        1 UNL1     -0.0339
     25 C         -7.184793   -1.996423   1.086138 C.3        1 UNL1     -0.0615
     26 C         -7.942805   -1.928273   -1.324378 C.3        1 UNL1     -0.0615
     27 C         -1.543426   -11.11923   -1.721183 C.ar        1 UNL1     0.1347
     28 C         -0.217968   -10.805046   -1.963052 C.ar        1 UNL1     0.0342
     29 C         0.139336   -9.481122   -1.6303 C.ar        1 UNL1     0.1435
     30 C         -0.778318   -8.549293   -1.143653 C.ar        1 UNL1     0.0774
     31 O         1.366241   -8.990468   -1.911317 O.3        1 UNL1     -0.4436
     32 C         1.202384   -7.564608   -1.880551 C.3        1 UNL1     0.3143
     33 C         -0.016829   -7.324584   -1.013303 C.2        1 UNL1     0.2504
     34 C         0.777533   -11.674108   -2.679856 C.3        1 UNL1     -0.0327
     35 O         2.327267   -7.021615   -1.178376 O.2        1 UNL1     -0.4528
     36 C         2.907005   -3.571641   -2.651355 C.3        1 UNL1     0.0854
     37 C         1.914447   -2.349713   -2.7475 C.3        1 UNL1     0.0236
     38 C         2.45752   -0.9855   -2.102721 C.3        1 UNL1     0.1131
     39 C         3.036396   -0.988777   -0.630593 C.3        1 UNL1     0.0200
     40 C         2.254045   -1.82392   0.583039 C.3        1 UNL1     0.0661
     41 C         0.600824   -1.726117   0.950331 C.3        1 UNL1     0.0091
     42 C         -0.54827   -2.993945   1.611842 C.3        1 UNL1     0.0661
     43 C         -3.913883   -10.547083   -1.154407 C.2        1 UNL1     0.2131
     44 O         -4.418344   -11.500089   -1.720123 O.2        1 UNL1     -0.2851
     45 O         -1.981252   -12.425404   -1.930122 O.3        1 UNL1     -0.5056
     46 O         -0.287713   -6.350628   -0.347055 O.2        1 UNL1     -0.2836
     47 C         -0.082033   -4.504922   3.760653 C.3        1 UNL1     -0.0566
     48 O         -1.124875   -2.097581   2.642946 O.3        1 UNL1     -0.3909
     49 C         -0.1127   -1.036533   -0.191094 C.3        1 UNL1     -0.0577
     50 O         2.677698   -3.171905   0.617358 O.3        1 UNL1     -0.3910
     51 O         4.060774   -3.367913   -1.867301 O.3        1 UNL1     -0.3753
     52 C         0.423258   -2.799046   -2.608204 C.3        1 UNL1     -0.0564
     53 O         1.66948   0.225729   -2.507989 O.3        1 UNL1     -0.4608
     54 C         0.902012   0.991915   -1.670204 C.2        1 UNL1     0.3042
     55 O         0.458913   0.676976   -0.566431 O.2        1 UNL1     -0.2512
     56 C         0.65237   2.380798   -2.18537 C.3        1 UNL1     0.0332
     57 C         4.624774   -1.143195   -0.737293 C.3        1 UNL1     -0.0567
     58 C         0.877744   -7.130275   -3.328824 C.3        1 UNL1     0.0210
     59 C         4.061638   -2.162351   -1.104095 C.3        1 UNL1     0.0372
     60 C         2.292798   -4.845782   -2.188242 C.2        1 UNL1     -0.0208
     61 C         2.724838   -5.740402   -1.298443 C.2        1 UNL1     0.0882
     62 H         -0.361136   -5.139354   1.73484 H        1 UNL1     0.0365
     63 H         -1.545866   -6.787768   1.957042 H        1 UNL1     0.0576
     64 H         -3.955659   -6.188374   3.781981 H        1 UNL1     0.0615
     65 H         -3.116664   -8.698734   2.123055 H        1 UNL1     0.0622
     66 H         3.226133   -3.750237   -3.687843 H        1 UNL1     0.0645
     67 H         1.904748   -2.09609   -3.821809 H        1 UNL1     0.0362
     68 H         3.324328   -0.805242   -2.756689 H        1 UNL1     0.0741
     69 H         3.040035   0.026072   -0.255793 H        1 UNL1     0.0359
     70 H         2.729368   -1.36194   1.469437 H        1 UNL1     0.0600
     71 H         0.619292   -0.92215   1.712075 H        1 UNL1     0.0348
     72 H         0.464843   -3.348885   1.850453 H        1 UNL1     0.0602
     73 H         1.438755   -5.057956   -2.782247 H        1 UNL1     0.0628
     74 H         3.55575   -5.575398   -0.611714 H        1 UNL1     0.1022
     75 H         -6.787022   -8.229198   3.866009 H        1 UNL1     0.0279
     76 H         -7.321073   -9.240671   2.583429 H        1 UNL1     0.0279
     77 H         -6.588143   -9.917282   4.093497 H        1 UNL1     0.0279
     78 H         -6.399842   -9.255365   0.559835 H        1 UNL1     0.1553
     79 H         -5.967133   -7.322302   0.607356 H        1 UNL1     0.1484
     80 H         -4.526706   -4.674102   -1.706018 H        1 UNL1     0.0317
     81 H         -4.781789   -6.338869   -2.209418 H        1 UNL1     0.0317
     82 H         -6.955101   -6.444643   -0.960726 H        1 UNL1     0.0428
     83 H         -6.91392   -5.151163   -2.138401 H        1 UNL1     0.0428
     84 H         -6.209664   -4.060205   1.913385 H        1 UNL1     0.0428
     85 H         -6.538863   -5.730803   1.613632 H        1 UNL1     0.0428
     86 H         -4.146179   -5.082847   1.896595 H        1 UNL1     0.0317
     87 H         -4.171476   -4.025249   0.561231 H        1 UNL1     0.0317
     88 H         -8.60387   -4.399018   -0.968456 H        1 UNL1     0.0429
     89 H         -8.614041   -4.554728   0.78992 H        1 UNL1     0.0429
     90 H         -9.18765   -2.256904   0.337303 H        1 UNL1     0.0308
     91 H         -6.274753   -1.617837   0.611162 H        1 UNL1     0.0233
     92 H         -7.645285   -1.195071   1.66871 H        1 UNL1     0.0233
     93 H         -6.872383   -2.759508   1.809281 H        1 UNL1     0.0233
     94 H         -7.365013   -1.002651   -1.228377 H        1 UNL1     0.0233
     95 H         -7.373907   -2.616886   -1.955354 H        1 UNL1     0.0233
     96 H         -8.889154   -1.695044   -1.820357 H        1 UNL1     0.0233
     97 H         0.882357   -11.397149   -3.724622 H        1 UNL1     0.0280
     98 H         1.782969   -11.596155   -2.245946 H        1 UNL1     0.0280
     99 H         0.450953   -12.725857   -2.63226 H        1 UNL1     0.0280
     100 H         -1.304233   -13.03041   -2.177579 H        1 UNL1     0.2922
     101 H         0.9261   -4.19108   3.49079 H        1 UNL1     0.0236
     102 H         -0.080934   -5.419385   4.352885 H        1 UNL1     0.0236
     103 H         -0.443078   -3.723851   4.450412 H        1 UNL1     0.0236
     104 H         -1.867474   -1.613779   2.231299 H        1 UNL1     0.2098
     105 H         0.307356   -1.241504   -1.172599 H        1 UNL1     0.0234
     106 H         -1.193147   -1.179221   -0.205279 H        1 UNL1     0.0234
     107 H         0.0   0.0   0.0 H        1 UNL1     0.0234
     108 H         2.43328   -3.57468   -0.238096 H        1 UNL1     0.2098
     109 H         -0.196723   -2.448543   -3.445153 H        1 UNL1     0.0234
     110 H         0.308925   -3.882615   -2.496174 H        1 UNL1     0.0234
     111 H         -0.040535   -2.387321   -1.701934 H        1 UNL1     0.0234
     112 H         1.354113   3.081191   -1.722389 H        1 UNL1     0.0342
     113 H         0.709603   2.431121   -3.271664 H        1 UNL1     0.0342
     114 H         -0.36363   2.678304   -1.891432 H        1 UNL1     0.0342
     115 H         5.134463   -0.74396   0.15041 H        1 UNL1     0.0234
     116 H         4.96252   -2.172306   -0.874797 H        1 UNL1     0.0234
     117 H         5.073943   -0.527792   -1.53571 H        1 UNL1     0.0234
     118 H         1.450168   -6.236059   -3.631669 H        1 UNL1     0.0309
     119 H         1.041272   -7.925734   -4.06279 H        1 UNL1     0.0309
     120 H         -0.164648   -6.815767   -3.449694 H        1 UNL1     0.0309
     121 H         3.686285   -1.365654   -1.745765 H        1 UNL1     0.0524
     122 H         3.396991   -2.222476   -0.226218 H        1 UNL1     0.0524
     123 H         5.068566   -1.93053   -0.768759 H        1 UNL1     0.0524
@<TRIPOS>BOND
     1     1     2    1
     2     1    42    1
     3     2     3    2
     4     3     4    1
     5     4     5    2
     6     5     7    1
     7     6    75    1
     8     6    76    1
     9     6    77    1
    10     7     9   am
    11     9    10    1
    12    10    11    2
    13    10    43    1
    14    11    14    1
    15    11    15    1
    16    12    13   ar
    17    12    27   ar
    18    12    43    1
    19    13    14    1
    20    13    30   ar
    21    14    17    2
    22    15    16    1
    23    16    17    1
    24    16    18    1
    25    16    22    1
    26    18    19    1
    27    19    20    1
    28    20    21    1
    29    21    22    1
    30    23    24    1
    31    23    88    1
    32    23    89    1
    33    24    25    1
    34    24    26    1
    35    24    90    1
    36    25    91    1
    37    25    92    1
    38    25    93    1
    39    26    94    1
    40    26    95    1
    41    26    96    1
    42    27    28   ar
    43    28    29   ar
    44    29    30   ar
    45    29    31    1
    46    30    33    1
    47    31    32    1
    48    32    33    1
    49    32    35    1
    50    34    97    1
    51    34    98    1
    52    34    99    1
    53    35    61    1
    54    36    37    1
    55    36    60    1
    56    37    38    1
    57    38    39    1
    58    39    40    1
    59    40    41    1
    60    41    42    1
    61    45   100    1
    62    47   101    1
    63    47   102    1
    64    47   103    1
    65    48   104    1
    66    49   105    1
    67    49   106    1
    68    49   107    1
    69    50   108    1
    70    51    59    1
    71    52   109    1
    72    52   110    1
    73    52   111    1
    74    53    54    1
    75    54    55    2
    76    54    56    1
    77    56   112    1
    78    56   113    1
    79    56   114    1
    80    57   115    1
    81    57   116    1
    82    57   117    1
    83    58   118    1
    84    58   119    1
    85    58   120    1
    86    59   121    1
    87    59   122    1
    88    59   123    1
    89    60    61    2
    90     1    47    1
    91     1    62    1
    92     2    63    1
    93     3    64    1
    94     4    65    1
    95     5     6    1
    96     7     8    2
    97     9    78    1
    98    15    79    1
    99    18    80    1
   100    18    81    1
   101    19    82    1
   102    19    83    1
   103    20    23    1
   104    21    84    1
   105    21    85    1
   106    22    86    1
   107    22    87    1
   108    27    45    1
   109    28    34    1
   110    32    58    1
   111    33    46    2
   112    36    51    1
   113    36    66    1
   114    37    52    1
   115    37    67    1
   116    38    53    1
   117    38    68    1
   118    42    48    1
   119    42    72    1
   120    43    44    2
   121    60    73    1
   122    61    74    1
   123    39    69    1
   124    39    57    1
   125    40    70    1
   126    40    50    1
   127    41    71    1
   128    41    49    1
