@<TRIPOS>MOLECULE
*****
 123 128 0 0 0
SMALL
GASTEIGER

@<TRIPOS>ATOM
     1 C         4.718334   2.782098   -0.094947 C.3        1 UNL1     0.0009
     2 C         5.85406   3.842358   -1.106386 C.2        1 UNL1     -0.0787
     3 C         7.052886   3.993747   -1.903847 C.2        1 UNL1     -0.0649
     4 C         7.56263   5.357615   -2.767783 C.2        1 UNL1     -0.0542
     5 C         8.39533   5.824608   -3.814495 C.2        1 UNL1     0.0115
     6 C         9.538224   5.420931   -4.786175 C.3        1 UNL1     -0.0348
     7 C         8.107077   7.270147   -4.450351 C.2        1 UNL1     0.2441
     8 O         8.768541   8.261866   -4.175605 O.2        1 UNL1     -0.2702
     9 N         7.215355   7.268374   -5.537081 N.am        1 UNL1     -0.2772
     10 C         5.917958   7.385153   -5.093857 C.2        1 UNL1     0.1049
     11 C         5.335245   6.26793   -4.698281 C.2        1 UNL1     0.0801
     12 C         4.453588   8.731375   -3.577071 C.ar        1 UNL1     0.0753
     13 C         4.004562   7.485675   -3.033734 C.ar        1 UNL1     0.0305
     14 C         4.334049   6.211168   -3.667863 C.2        1 UNL1     0.0924
     15 N         5.724485   4.990339   -4.849214 N.pl3        1 UNL1     -0.3170
     16 C         4.651956   4.147273   -4.391857 C.3        1 UNL1     0.1275
     17 N         3.927266   4.981838   -3.364214 N.2        1 UNL1     -0.2557
     18 C         3.683   3.975751   -5.557792 C.3        1 UNL1     0.0016
     19 C         4.449319   3.425481   -6.750079 C.3        1 UNL1     0.0026
     20 N         5.047574   2.151944   -6.374285 N.3        1 UNL1     -0.3018
     21 C         5.94897   2.204587   -5.221427 C.3        1 UNL1     0.0026
     22 C         5.157317   2.755771   -4.034255 C.3        1 UNL1     0.0016
     23 C         5.543524   1.404163   -7.512486 C.3        1 UNL1     0.0012
     24 C         4.375619   0.877723   -8.361377 C.3        1 UNL1     -0.0339
     25 C         4.706204   -0.486854   -8.988034 C.3        1 UNL1     -0.0615
     26 C         3.10964   0.816568   -7.524516 C.3        1 UNL1     -0.0615
     27 C         4.036375   9.946114   -3.038127 C.ar        1 UNL1     0.1347
     28 C         3.143968   10.041825   -1.985274 C.ar        1 UNL1     0.0342
     29 C         2.753503   8.802459   -1.435117 C.ar        1 UNL1     0.1435
     30 C         3.19162   7.578162   -1.941449 C.ar        1 UNL1     0.0774
     31 O         1.804335   8.724415   -0.476997 O.3        1 UNL1     -0.4436
     32 C         1.354536   7.361878   -0.522242 C.3        1 UNL1     0.3143
     33 C         2.498767   6.587427   -1.144477 C.2        1 UNL1     0.2504
     34 C         2.460325   11.297422   -1.520291 C.3        1 UNL1     -0.0327
     35 O         1.231531   6.908723   0.831557 O.2        1 UNL1     -0.4528
     36 C         -1.542329   4.317686   0.813692 C.3        1 UNL1     0.0854
     37 C         -1.658169   2.987916   -0.026435 C.3        1 UNL1     0.0236
     38 C         -1.890114   1.658834   0.840449 C.3        1 UNL1     0.1131
     39 C         -0.939138   1.34405   2.064715 C.3        1 UNL1     0.0200
     40 C         0.709843   1.556627   1.930143 C.3        1 UNL1     0.0661
     41 C         1.688951   0.965552   0.677312 C.3        1 UNL1     0.0091
     42 C         3.212308   1.661159   -0.071634 C.3        1 UNL1     0.0661
     43 C         5.307622   8.688021   -4.789922 C.2        1 UNL1     0.2131
     44 O         5.429861   9.622671   -5.560782 O.2        1 UNL1     -0.2851
     45 O         4.555954   11.112083   -3.596689 O.3        1 UNL1     -0.5056
     46 O         2.786757   5.420644   -0.997741 O.2        1 UNL1     -0.2836
     47 C         5.341371   2.501549   1.299004 C.3        1 UNL1     -0.0566
     48 O         3.960194   0.381798   -0.016702 O.3        1 UNL1     -0.3909
     49 C         0.80333   0.514099   -0.462583 C.3        1 UNL1     -0.0577
     50 O         1.070243   2.888242   2.237775 O.3        1 UNL1     -0.3910
     51 O         -1.481173   4.158877   2.213146 O.3        1 UNL1     -0.3753
     52 C         -0.725805   3.009544   -1.281497 C.3        1 UNL1     -0.0564
     53 O         -2.342695   0.482138   0.026274 O.3        1 UNL1     -0.4608
     54 C         -2.416592   -0.811726   0.471677 C.2        1 UNL1     0.3042
     55 O         -1.629533   -1.728132   0.238058 O.2        1 UNL1     -0.2512
     56 C         -3.579149   -1.066757   1.388266 C.3        1 UNL1     0.0332
     57 C         -1.655891   1.891825   3.385466 C.3        1 UNL1     -0.0567
     58 C         0.147713   7.331511   -1.488775 C.3        1 UNL1     0.0210
     59 C         -2.660166   4.55346   2.91325 C.3        1 UNL1     0.0372
     60 C         -0.410351   5.20569   0.432595 C.2        1 UNL1     -0.0208
     61 C         0.470607   5.857695   1.19256 C.2        1 UNL1     0.0882
     62 H         4.052943   3.645196   0.027648 H        1 UNL1     0.0365
     63 H         5.379148   4.818695   -0.989361 H        1 UNL1     0.0576
     64 H         7.683264   3.138607   -2.157749 H        1 UNL1     0.0615
     65 H         6.927481   6.161031   -2.38491 H        1 UNL1     0.0622
     66 H         -2.457775   4.876544   0.57352 H        1 UNL1     0.0645
     67 H         -2.627354   3.082805   -0.546279 H        1 UNL1     0.0362
     68 H         -2.868471   1.897426   1.284763 H        1 UNL1     0.0741
     69 H         -1.023585   0.293744   2.30994 H        1 UNL1     0.0359
     70 H         1.049823   0.96906   2.804351 H        1 UNL1     0.0600
     71 H         1.994437   -0.006064   1.11274 H        1 UNL1     0.0348
     72 H         3.103473   2.152501   0.906146 H        1 UNL1     0.0602
     73 H         -0.443241   5.384028   -0.613523 H        1 UNL1     0.0628
     74 H         0.607222   5.688854   2.261235 H        1 UNL1     0.1022
     75 H         10.355449   4.897126   -4.234082 H        1 UNL1     0.0279
     76 H         9.283592   4.703885   -5.563398 H        1 UNL1     0.0279
     77 H         10.075036   6.28929   -5.195425 H        1 UNL1     0.0279
     78 H         7.28939   6.38586   -6.038843 H        1 UNL1     0.1553
     79 H         6.400335   4.690441   -5.52761 H        1 UNL1     0.1484
     80 H         2.874725   3.299423   -5.254413 H        1 UNL1     0.0317
     81 H         3.212173   4.929595   -5.818855 H        1 UNL1     0.0317
     82 H         5.213711   4.132673   -7.104337 H        1 UNL1     0.0428
     83 H         3.739993   3.312606   -7.570546 H        1 UNL1     0.0428
     84 H         6.321761   1.223544   -4.910953 H        1 UNL1     0.0428
     85 H         6.859692   2.778965   -5.440498 H        1 UNL1     0.0428
     86 H         5.80474   2.655539   -3.182912 H        1 UNL1     0.0317
     87 H         4.321548   2.085947   -3.797776 H        1 UNL1     0.0317
     88 H         6.146652   2.082393   -8.130171 H        1 UNL1     0.0429
     89 H         6.202914   0.585972   -7.195402 H        1 UNL1     0.0429
     90 H         4.16751   1.591024   -9.167669 H        1 UNL1     0.0308
     91 H         5.151841   -1.164349   -8.253519 H        1 UNL1     0.0233
     92 H         3.807622   -0.949058   -9.403397 H        1 UNL1     0.0233
     93 H         5.418751   -0.40382   -9.817623 H        1 UNL1     0.0233
     94 H         2.399268   0.108863   -7.96538 H        1 UNL1     0.0233
     95 H         3.34602   0.471594   -6.514031 H        1 UNL1     0.0233
     96 H         2.626695   1.79559   -7.459334 H        1 UNL1     0.0233
     97 H         1.381005   11.235494   -1.622578 H        1 UNL1     0.0280
     98 H         2.650283   11.503233   -0.458776 H        1 UNL1     0.0280
     99 H         2.815419   12.153586   -2.116938 H        1 UNL1     0.0280
     100 H         5.491741   11.115254   -3.69626 H        1 UNL1     0.2922
     101 H         4.843756   3.110531   2.053441 H        1 UNL1     0.0236
     102 H         6.42316   2.629353   1.318586 H        1 UNL1     0.0236
     103 H         5.175366   1.461191   1.625027 H        1 UNL1     0.0236
     104 H         3.804156   -0.087496   -0.859546 H        1 UNL1     0.2098
     105 H         0.383597   1.324457   -1.053307 H        1 UNL1     0.0234
     106 H         1.248032   -0.237624   -1.114564 H        1 UNL1     0.0234
     107 H         0.0   -0.0   0.0 H        1 UNL1     0.0234
     108 H         0.798614   3.444225   1.482217 H        1 UNL1     0.2098
     109 H         -0.97405   3.829302   -1.970034 H        1 UNL1     0.0234
     110 H         0.33842   3.054929   -1.026332 H        1 UNL1     0.0234
     111 H         -0.819143   2.087711   -1.870951 H        1 UNL1     0.0234
     112 H         -3.567793   -2.108554   1.722745 H        1 UNL1     0.0342
     113 H         -3.58922   -0.384115   2.236643 H        1 UNL1     0.0342
     114 H         -4.505709   -0.905497   0.820246 H        1 UNL1     0.0342
     115 H         -2.6762   1.497771   3.489765 H        1 UNL1     0.0234
     116 H         -1.119732   1.66349   4.308745 H        1 UNL1     0.0234
     117 H         -1.848306   2.978297   3.363171 H        1 UNL1     0.0234
     118 H         -0.802889   7.144319   -0.95932 H        1 UNL1     0.0309
     119 H         0.051788   8.244422   -2.085092 H        1 UNL1     0.0309
     120 H         0.204265   6.505374   -2.205996 H        1 UNL1     0.0309
     121 H         -2.366028   4.827567   3.926021 H        1 UNL1     0.0524
     122 H         -3.14219   5.43443   2.457639 H        1 UNL1     0.0524
     123 H         -3.373831   3.734848   2.938788 H        1 UNL1     0.0524
@<TRIPOS>BOND
     1     1     2    1
     2     1    42    1
     3     2     3    2
     4     3     4    1
     5     4     5    2
     6     5     7    1
     7     6    75    1
     8     6    76    1
     9     6    77    1
    10     7     9   am
    11     9    10    1
    12    10    11    2
    13    10    43    1
    14    11    14    1
    15    11    15    1
    16    12    13   ar
    17    12    27   ar
    18    12    43    1
    19    13    14    1
    20    13    30   ar
    21    14    17    2
    22    15    16    1
    23    16    17    1
    24    16    18    1
    25    16    22    1
    26    18    19    1
    27    19    20    1
    28    20    21    1
    29    21    22    1
    30    23    24    1
    31    23    88    1
    32    23    89    1
    33    24    25    1
    34    24    26    1
    35    24    90    1
    36    25    91    1
    37    25    92    1
    38    25    93    1
    39    26    94    1
    40    26    95    1
    41    26    96    1
    42    27    28   ar
    43    28    29   ar
    44    29    30   ar
    45    29    31    1
    46    30    33    1
    47    31    32    1
    48    32    33    1
    49    32    35    1
    50    34    97    1
    51    34    98    1
    52    34    99    1
    53    35    61    1
    54    36    37    1
    55    36    60    1
    56    37    38    1
    57    38    39    1
    58    39    40    1
    59    40    41    1
    60    41    42    1
    61    45   100    1
    62    47   101    1
    63    47   102    1
    64    47   103    1
    65    48   104    1
    66    49   105    1
    67    49   106    1
    68    49   107    1
    69    50   108    1
    70    51    59    1
    71    52   109    1
    72    52   110    1
    73    52   111    1
    74    53    54    1
    75    54    55    2
    76    54    56    1
    77    56   112    1
    78    56   113    1
    79    56   114    1
    80    57   115    1
    81    57   116    1
    82    57   117    1
    83    58   118    1
    84    58   119    1
    85    58   120    1
    86    59   121    1
    87    59   122    1
    88    59   123    1
    89    60    61    2
    90     1    47    1
    91     1    62    1
    92     2    63    1
    93     3    64    1
    94     4    65    1
    95     5     6    1
    96     7     8    2
    97     9    78    1
    98    15    79    1
    99    18    80    1
   100    18    81    1
   101    19    82    1
   102    19    83    1
   103    20    23    1
   104    21    84    1
   105    21    85    1
   106    22    86    1
   107    22    87    1
   108    27    45    1
   109    28    34    1
   110    32    58    1
   111    33    46    2
   112    36    51    1
   113    36    66    1
   114    37    52    1
   115    37    67    1
   116    38    53    1
   117    38    68    1
   118    42    48    1
   119    42    72    1
   120    43    44    2
   121    60    73    1
   122    61    74    1
   123    39    69    1
   124    39    57    1
   125    40    70    1
   126    40    50    1
   127    41    71    1
   128    41    49    1
