@<TRIPOS>MOLECULE
*****
 123 128 0 0 0
SMALL
GASTEIGER

@<TRIPOS>ATOM
     1 C         3.883774   0.139496   1.693471 C.3        1 UNL1     0.0009
     2 C         4.501034   -0.772366   3.184959 C.2        1 UNL1     -0.0787
     3 C         4.893151   -0.78115   4.578592 C.2        1 UNL1     -0.0649
     4 C         5.311013   -2.115195   5.533617 C.2        1 UNL1     -0.0542
     5 C         5.445345   -2.597936   6.858756 C.2        1 UNL1     0.0115
     6 C         5.453655   -2.177917   8.354362 C.3        1 UNL1     -0.0348
     7 C         5.500038   -4.183093   7.106292 C.2        1 UNL1     0.2441
     8 O         6.540729   -4.786255   7.329195 O.2        1 UNL1     -0.2702
     9 N         4.248874   -4.791056   7.309072 N.am        1 UNL1     -0.2772
     10 C         3.694895   -5.162727   6.105622 C.2        1 UNL1     0.1049
     11 C         3.054518   -4.216796   5.442785 C.2        1 UNL1     0.0801
     12 C         4.20836   -6.363669   3.972215 C.ar        1 UNL1     0.0753
     13 C         3.690389   -5.215374   3.292704 C.ar        1 UNL1     0.0305
     14 C         2.976001   -4.160495   4.008198 C.2        1 UNL1     0.0924
     15 N         2.668758   -2.992549   5.841454 N.pl3        1 UNL1     -0.3170
     16 C         1.856119   -2.426331   4.797774 C.3        1 UNL1     0.1275
     17 N         2.349724   -3.087275   3.533958 N.2        1 UNL1     -0.2557
     18 C         0.43167   -2.929752   5.010413 C.3        1 UNL1     0.0016
     19 C         -0.008942   -2.562198   6.418374 C.3        1 UNL1     0.0026
     20 N         0.063323   -1.115376   6.56841 N.3        1 UNL1     -0.3018
     21 C         1.382807   -0.52993   6.322274 C.3        1 UNL1     0.0026
     22 C         1.803746   -0.907731   4.901017 C.3        1 UNL1     0.0016
     23 C         -0.612324   -0.637354   7.758217 C.3        1 UNL1     0.0012
     24 C         0.319114   -0.722811   8.977593 C.3        1 UNL1     -0.0339
     25 C         1.786125   -0.901312   8.553241 C.3        1 UNL1     -0.0615
     26 C         0.137014   0.500754   9.85879 C.3        1 UNL1     -0.0615
     27 C         4.780738   -7.421134   3.269173 C.ar        1 UNL1     0.1347
     28 C         4.855101   -7.461437   1.888268 C.ar        1 UNL1     0.0342
     29 C         4.383284   -6.29859   1.243026 C.ar        1 UNL1     0.1435
     30 C         3.840336   -5.216047   1.936227 C.ar        1 UNL1     0.0774
     31 O         4.287044   -6.229154   -0.10268 O.3        1 UNL1     -0.4436
     32 C         3.364578   -5.156303   -0.345415 C.3        1 UNL1     0.3143
     33 C         3.421928   -4.295114   0.900089 C.2        1 UNL1     0.2504
     34 C         5.222096   -8.660969   1.059691 C.3        1 UNL1     -0.0327
     35 O         3.896795   -4.371807   -1.419921 O.2        1 UNL1     -0.4528
     36 C         0.895926   -2.905779   -3.223705 C.3        1 UNL1     0.0854
     37 C         -0.264984   -2.002405   -2.654736 C.3        1 UNL1     0.0236
     38 C         -0.479485   -0.612603   -3.42557 C.3        1 UNL1     0.1131
     39 C         0.756079   0.340768   -3.6839 C.3        1 UNL1     0.0200
     40 C         1.874628   0.619654   -2.478285 C.3        1 UNL1     0.0661
     41 C         1.522733   1.071375   -0.881498 C.3        1 UNL1     0.0091
     42 C         2.398791   0.688339   0.684136 C.3        1 UNL1     0.0661
     43 C         4.035065   -6.431413   5.444505 C.2        1 UNL1     0.2131
     44 O         4.061749   -7.470846   6.078228 O.2        1 UNL1     -0.2851
     45 O         5.3022   -8.480458   4.009003 O.3        1 UNL1     -0.5056
     46 O         3.195047   -3.110781   1.008411 O.2        1 UNL1     -0.2836
     47 C         5.015952   1.012341   1.088247 C.3        1 UNL1     -0.0566
     48 O         2.376458   2.088493   1.17218 O.3        1 UNL1     -0.3909
     49 C         0.047913   0.853704   -0.626508 C.3        1 UNL1     -0.0577
     50 O         2.881032   -0.372696   -2.489063 O.3        1 UNL1     -0.3910
     51 O         1.707329   -2.315075   -4.213717 O.3        1 UNL1     -0.3753
     52 C         -0.382728   -2.117269   -1.099779 C.3        1 UNL1     -0.0564
     53 O         -1.784155   0.056525   -3.105522 O.3        1 UNL1     -0.4608
     54 C         -1.973546   1.407276   -2.973118 C.2        1 UNL1     0.3042
     55 O         -1.628194   2.121209   -2.032441 O.2        1 UNL1     -0.2512
     56 C         -2.632157   2.041879   -4.164849 C.3        1 UNL1     0.0332
     57 C         1.305936   0.030196   -5.153382 C.3        1 UNL1     -0.0567
     58 C         1.961589   -5.799431   -0.443079 C.3        1 UNL1     0.0210
     59 C         1.508175   -2.82158   -5.532677 C.3        1 UNL1     0.0372
     60 C         1.813784   -3.470634   -2.197237 C.2        1 UNL1     -0.0208
     61 C         3.144906   -3.551314   -2.178499 C.2        1 UNL1     0.0882
     62 H         3.886669   -0.806057   1.137924 H        1 UNL1     0.0365
     63 H         4.677745   -1.762459   2.759566 H        1 UNL1     0.0576
     64 H         4.791453   0.106148   5.207453 H        1 UNL1     0.0615
     65 H         5.46435   -2.917905   4.807237 H        1 UNL1     0.0622
     66 H         0.380867   -3.766243   -3.673551 H        1 UNL1     0.0645
     67 H         -1.185963   -2.547682   -2.92498 H        1 UNL1     0.0362
     68 H         -0.765635   -0.994616   -4.41739 H        1 UNL1     0.0741
     69 H         0.389058   1.334945   -3.901426 H        1 UNL1     0.0359
     70 H         2.371323   1.521753   -2.883959 H        1 UNL1     0.0600
     71 H         1.565785   2.173953   -0.978584 H        1 UNL1     0.0348
     72 H         3.126318   0.512008   -0.121425 H        1 UNL1     0.0602
     73 H         1.241822   -3.961879   -1.449717 H        1 UNL1     0.0628
     74 H         3.80415   -3.029534   -2.873035 H        1 UNL1     0.1022
     75 H         4.779898   -1.302816   8.519534 H        1 UNL1     0.0279
     76 H         5.06988   -2.906459   9.065004 H        1 UNL1     0.0279
     77 H         6.422777   -1.769111   8.675894 H        1 UNL1     0.0279
     78 H         3.613181   -4.127621   7.747051 H        1 UNL1     0.1553
     79 H         2.584759   -2.720912   6.80379 H        1 UNL1     0.1484
     80 H         -0.223367   -2.478814   4.2552 H        1 UNL1     0.0317
     81 H         0.374514   -4.014188   4.867646 H        1 UNL1     0.0317
     82 H         0.599565   -3.070113   7.181037 H        1 UNL1     0.0428
     83 H         -1.026354   -2.932018   6.549356 H        1 UNL1     0.0428
     84 H         1.391963   0.563718   6.363043 H        1 UNL1     0.0428
     85 H         2.112773   -0.831511   7.086155 H        1 UNL1     0.0428
     86 H         2.705318   -0.355864   4.709708 H        1 UNL1     0.0317
     87 H         1.092955   -0.491673   4.176608 H        1 UNL1     0.0317
     88 H         -0.882775   0.414549   7.598057 H        1 UNL1     0.0429
     89 H         -1.546348   -1.186373   7.934145 H        1 UNL1     0.0429
     90 H         0.026777   -1.58161   9.593399 H        1 UNL1     0.0308
     91 H         2.431541   -1.07984   9.418497 H        1 UNL1     0.0233
     92 H         1.887086   -1.733581   7.85271 H        1 UNL1     0.0233
     93 H         2.182206   -0.017989   8.037784 H        1 UNL1     0.0233
     94 H         1.023838   1.141326   9.803596 H        1 UNL1     0.0233
     95 H         -0.722016   1.083972   9.515447 H        1 UNL1     0.0233
     96 H         -0.021919   0.219904   10.903698 H        1 UNL1     0.0233
     97 H         5.74112   -9.415721   1.642953 H        1 UNL1     0.0280
     98 H         4.338826   -9.16012   0.640242 H        1 UNL1     0.0280
     99 H         5.880736   -8.35036   0.232158 H        1 UNL1     0.0280
     100 H         6.165928   -8.750553   3.750849 H        1 UNL1     0.2922
     101 H         5.706946   1.315246   1.874652 H        1 UNL1     0.0236
     102 H         4.643389   1.864401   0.520644 H        1 UNL1     0.0236
     103 H         5.636575   0.447659   0.372598 H        1 UNL1     0.0236
     104 H         1.832718   2.609343   0.549256 H        1 UNL1     0.2098
     105 H         -0.444324   1.673718   -0.109699 H        1 UNL1     0.0234
     106 H         -0.527632   0.560738   -1.504486 H        1 UNL1     0.0234
     107 H         -0.0   0.0   0.0 H        1 UNL1     0.0234
     108 H         3.727909   0.070818   -2.289405 H        1 UNL1     0.2098
     109 H         -0.605343   -3.142986   -0.77411 H        1 UNL1     0.0234
     110 H         0.504351   -1.749858   -0.572671 H        1 UNL1     0.0234
     111 H         -1.200483   -1.49723   -0.708917 H        1 UNL1     0.0234
     112 H         -3.367125   1.35414   -4.594015 H        1 UNL1     0.0342
     113 H         -3.089743   2.998866   -3.918609 H        1 UNL1     0.0342
     114 H         -1.860706   2.227525   -4.924825 H        1 UNL1     0.0342
     115 H         1.133507   0.870439   -5.840003 H        1 UNL1     0.0234
     116 H         2.370744   -0.208673   -5.187663 H        1 UNL1     0.0234
     117 H         0.758586   -0.779562   -5.665867 H        1 UNL1     0.0234
     118 H         1.740171   -6.445123   0.424713 H        1 UNL1     0.0309
     119 H         1.158788   -5.063986   -0.556366 H        1 UNL1     0.0309
     120 H         1.870315   -6.481668   -1.295327 H        1 UNL1     0.0309
     121 H         1.055183   -3.808456   -5.441957 H        1 UNL1     0.0524
     122 H         0.820089   -2.193425   -6.122589 H        1 UNL1     0.0524
     123 H         2.4577   -2.891639   -6.055734 H        1 UNL1     0.0524
@<TRIPOS>BOND
     1     1     2    1
     2     1    42    1
     3     2     3    2
     4     3     4    1
     5     4     5    2
     6     5     7    1
     7     6    75    1
     8     6    76    1
     9     6    77    1
    10     7     9   am
    11     9    10    1
    12    10    11    2
    13    10    43    1
    14    11    14    1
    15    11    15    1
    16    12    13   ar
    17    12    27   ar
    18    12    43    1
    19    13    14    1
    20    13    30   ar
    21    14    17    2
    22    15    16    1
    23    16    17    1
    24    16    18    1
    25    16    22    1
    26    18    19    1
    27    19    20    1
    28    20    21    1
    29    21    22    1
    30    23    24    1
    31    23    88    1
    32    23    89    1
    33    24    25    1
    34    24    26    1
    35    24    90    1
    36    25    91    1
    37    25    92    1
    38    25    93    1
    39    26    94    1
    40    26    95    1
    41    26    96    1
    42    27    28   ar
    43    28    29   ar
    44    29    30   ar
    45    29    31    1
    46    30    33    1
    47    31    32    1
    48    32    33    1
    49    32    35    1
    50    34    97    1
    51    34    98    1
    52    34    99    1
    53    35    61    1
    54    36    37    1
    55    36    60    1
    56    37    38    1
    57    38    39    1
    58    39    40    1
    59    40    41    1
    60    41    42    1
    61    45   100    1
    62    47   101    1
    63    47   102    1
    64    47   103    1
    65    48   104    1
    66    49   105    1
    67    49   106    1
    68    49   107    1
    69    50   108    1
    70    51    59    1
    71    52   109    1
    72    52   110    1
    73    52   111    1
    74    53    54    1
    75    54    55    2
    76    54    56    1
    77    56   112    1
    78    56   113    1
    79    56   114    1
    80    57   115    1
    81    57   116    1
    82    57   117    1
    83    58   118    1
    84    58   119    1
    85    58   120    1
    86    59   121    1
    87    59   122    1
    88    59   123    1
    89    60    61    2
    90     1    47    1
    91     1    62    1
    92     2    63    1
    93     3    64    1
    94     4    65    1
    95     5     6    1
    96     7     8    2
    97     9    78    1
    98    15    79    1
    99    18    80    1
   100    18    81    1
   101    19    82    1
   102    19    83    1
   103    20    23    1
   104    21    84    1
   105    21    85    1
   106    22    86    1
   107    22    87    1
   108    27    45    1
   109    28    34    1
   110    32    58    1
   111    33    46    2
   112    36    51    1
   113    36    66    1
   114    37    52    1
   115    37    67    1
   116    38    53    1
   117    38    68    1
   118    42    48    1
   119    42    72    1
   120    43    44    2
   121    60    73    1
   122    61    74    1
   123    39    69    1
   124    39    57    1
   125    40    70    1
   126    40    50    1
   127    41    71    1
   128    41    49    1
