@<TRIPOS>MOLECULE
*****
 123 128 0 0 0
SMALL
GASTEIGER

@<TRIPOS>ATOM
     1 C         5.270723   -0.260612   -1.100345 C.3        1 UNL1     0.0009
     2 C         6.555397   -0.588437   -2.396176 C.2        1 UNL1     -0.0787
     3 C         7.446239   -1.503166   -3.078612 C.2        1 UNL1     -0.0649
     4 C         8.415531   -1.196192   -4.432347 C.2        1 UNL1     -0.0542
     5 C         9.125668   -1.782578   -5.508884 C.2        1 UNL1     0.0115
     6 C         9.634723   -3.128859   -6.093447 C.3        1 UNL1     -0.0348
     7 C         9.5366   -0.864688   -6.760124 C.2        1 UNL1     0.2441
     8 O         10.668769   -0.431281   -6.924071 O.2        1 UNL1     -0.2702
     9 N         8.57971   -0.807909   -7.78837 N.am        1 UNL1     -0.2772
     10 C         7.678545   0.204301   -7.55035 C.2        1 UNL1     0.1049
     11 C         6.684133   -0.082715   -6.729992 C.2        1 UNL1     0.0801
     12 C         7.530856   2.626597   -6.943717 C.ar        1 UNL1     0.0753
     13 C         6.607245   2.234071   -5.923191 C.ar        1 UNL1     0.0305
     14 C         6.054543   0.882496   -5.870131 C.2        1 UNL1     0.0924
     15 N         6.280313   -1.268941   -6.243858 N.pl3        1 UNL1     -0.3170
     16 C         5.047561   -1.055876   -5.533098 C.3        1 UNL1     0.1275
     17 N         5.123683   0.377132   -5.065747 N.2        1 UNL1     -0.2557
     18 C         3.919434   -1.107383   -6.558953 C.3        1 UNL1     0.0016
     19 C         3.995933   -2.432852   -7.299811 C.3        1 UNL1     0.0026
     20 N         3.875692   -3.516212   -6.333943 N.3        1 UNL1     -0.3018
     21 C         4.881852   -3.515099   -5.269982 C.3        1 UNL1     0.0026
     22 C         4.784117   -2.176579   -4.536016 C.3        1 UNL1     0.0016
     23 C         3.636632   -4.802962   -6.956653 C.3        1 UNL1     0.0012
     24 C         4.966606   -5.473748   -7.334771 C.3        1 UNL1     -0.0339
     25 C         5.937005   -4.472692   -7.983053 C.3        1 UNL1     -0.0615
     26 C         5.580691   -6.137267   -6.114352 C.3        1 UNL1     -0.0615
     27 C         7.95974   3.946688   -7.06007 C.ar        1 UNL1     0.1347
     28 C         7.505823   4.96619   -6.242376 C.ar        1 UNL1     0.0342
     29 C         6.634804   4.547352   -5.214239 C.ar        1 UNL1     0.1435
     30 C         6.224677   3.222152   -5.063044 C.ar        1 UNL1     0.0774
     31 O         6.020905   5.437509   -4.404452 O.3        1 UNL1     -0.4436
     32 C         4.909578   4.717303   -3.850262 C.3        1 UNL1     0.3143
     33 C         5.293325   3.255103   -3.954773 C.2        1 UNL1     0.2504
     34 C         7.723981   6.43712   -6.463448 C.3        1 UNL1     -0.0327
     35 O         4.850141   5.034261   -2.454104 O.2        1 UNL1     -0.4528
     36 C         1.187289   4.7946   -1.487584 C.3        1 UNL1     0.0854
     37 C         0.198341   3.573728   -1.625345 C.3        1 UNL1     0.0236
     38 C         -0.52511   3.132997   -0.263685 C.3        1 UNL1     0.1131
     39 C         0.338274   2.876718   1.03676 C.3        1 UNL1     0.0200
     40 C         1.768787   2.023525   0.946587 C.3        1 UNL1     0.0661
     41 C         1.983967   0.521868   0.187421 C.3        1 UNL1     0.0091
     42 C         3.443202   -0.175657   -0.678314 C.3        1 UNL1     0.0661
     43 C         7.94802   1.599168   -7.929934 C.2        1 UNL1     0.2131
     44 O         8.389473   1.865218   -9.033145 O.2        1 UNL1     -0.2851
     45 O         8.894637   4.2362   -8.05183 O.3        1 UNL1     -0.5056
     46 O         4.929491   2.329373   -3.264483 O.2        1 UNL1     -0.2836
     47 C         5.92102   -0.233634   0.309041 C.3        1 UNL1     -0.0566
     48 O         3.374168   -1.483042   0.018173 O.3        1 UNL1     -0.3909
     49 C         0.778228   0.236259   -0.679825 C.3        1 UNL1     -0.0577
     50 O         2.845857   2.882875   0.631688 O.3        1 UNL1     -0.3910
     51 O         1.446405   5.232188   -0.172743 O.3        1 UNL1     -0.3753
     52 C         0.705521   2.52946   -2.672829 C.3        1 UNL1     -0.0564
     53 O         -1.700497   2.224089   -0.475057 O.3        1 UNL1     -0.4608
     54 C         -2.235138   1.383711   0.466141 C.2        1 UNL1     0.3042
     55 O         -1.626744   0.647324   1.24166 O.2        1 UNL1     -0.2512
     56 C         -3.73329   1.452913   0.55254 C.3        1 UNL1     0.0332
     57 C         0.327909   4.225632   1.89612 C.3        1 UNL1     -0.0567
     58 C         3.705735   4.985051   -4.783323 C.3        1 UNL1     0.0210
     59 C         1.940527   6.566913   -0.071664 C.3        1 UNL1     0.0372
     60 C         2.508819   4.610905   -2.14711 C.2        1 UNL1     -0.0208
     61 C         3.738888   4.881733   -1.708559 C.2        1 UNL1     0.0882
     62 H         5.219831   0.780418   -1.441488 H        1 UNL1     0.0365
     63 H         6.719698   0.420658   -2.779846 H        1 UNL1     0.0576
     64 H         7.445209   -2.573337   -2.859884 H        1 UNL1     0.0615
     65 H         8.411947   -0.105839   -4.513586 H        1 UNL1     0.0622
     66 H         0.691959   5.613409   -2.028182 H        1 UNL1     0.0645
     67 H         -0.650064   3.979833   -2.203141 H        1 UNL1     0.0362
     68 H         -1.100256   4.048284   -0.056372 H        1 UNL1     0.0741
     69 H         -0.245554   2.28797   1.731691 H        1 UNL1     0.0359
     70 H         1.91316   1.779705   2.016526 H        1 UNL1     0.0600
     71 H         1.800539   -0.15588   1.04414 H        1 UNL1     0.0348
     72 H         3.825655   0.641251   -0.049262 H        1 UNL1     0.0602
     73 H         2.357749   4.318427   -3.156507 H        1 UNL1     0.0628
     74 H         3.984388   5.130772   -0.675627 H        1 UNL1     0.1022
     75 H         9.515801   -3.950478   -5.346563 H        1 UNL1     0.0279
     76 H         9.097962   -3.517021   -6.956168 H        1 UNL1     0.0279
     77 H         10.722669   -3.138209   -6.254649 H        1 UNL1     0.0279
     78 H         8.058165   -1.681486   -7.818873 H        1 UNL1     0.1553
     79 H         6.526456   -2.151505   -6.653037 H        1 UNL1     0.1484
     80 H         2.9596   -0.992921   -6.040896 H        1 UNL1     0.0317
     81 H         3.995244   -0.274396   -7.266085 H        1 UNL1     0.0317
     82 H         4.925924   -2.521636   -7.880455 H        1 UNL1     0.0428
     83 H         3.183899   -2.447814   -8.027428 H        1 UNL1     0.0428
     84 H         4.721865   -4.290318   -4.514171 H        1 UNL1     0.0428
     85 H         5.88796   -3.724957   -5.658598 H        1 UNL1     0.0428
     86 H         5.437219   -2.263256   -3.687528 H        1 UNL1     0.0317
     87 H         3.79128   -2.069695   -4.082203 H        1 UNL1     0.0317
     88 H         3.116674   -5.442157   -6.231141 H        1 UNL1     0.0429
     89 H         2.979016   -4.707178   -7.830232 H        1 UNL1     0.0429
     90 H         4.770748   -6.282547   -8.048702 H        1 UNL1     0.0308
     91 H         5.432445   -3.534594   -8.23304 H        1 UNL1     0.0233
     92 H         6.776675   -4.261775   -7.316662 H        1 UNL1     0.0233
     93 H         6.37361   -4.8567   -8.912972 H        1 UNL1     0.0233
     94 H         6.466984   -5.582177   -5.788475 H        1 UNL1     0.0233
     95 H         4.862574   -6.140113   -5.289572 H        1 UNL1     0.0233
     96 H         5.877531   -7.168006   -6.327498 H        1 UNL1     0.0233
     97 H         8.758013   6.724963   -6.298666 H        1 UNL1     0.0280
     98 H         7.487769   6.740563   -7.491739 H        1 UNL1     0.0280
     99 H         7.090209   7.012661   -5.769056 H        1 UNL1     0.0280
     100 H         8.523238   4.447766   -8.890237 H        1 UNL1     0.2922
     101 H         5.148547   -0.112186   1.068114 H        1 UNL1     0.0236
     102 H         6.708381   0.51343   0.403595 H        1 UNL1     0.0236
     103 H         6.409981   -1.190284   0.557902 H        1 UNL1     0.0236
     104 H         3.904628   -1.410116   0.835647 H        1 UNL1     0.2098
     105 H         0.448951   1.078811   -1.282731 H        1 UNL1     0.0234
     106 H         0.862064   -0.659081   -1.29567 H        1 UNL1     0.0234
     107 H         0.0   -0.0   0.0 H        1 UNL1     0.0234
     108 H         3.504349   2.797095   1.347787 H        1 UNL1     0.2098
     109 H         1.690975   2.120724   -2.40915 H        1 UNL1     0.0234
     110 H         0.000215   1.707808   -2.837674 H        1 UNL1     0.0234
     111 H         0.826821   2.979676   -3.667082 H        1 UNL1     0.0234
     112 H         -4.030498   2.273698   1.212333 H        1 UNL1     0.0342
     113 H         -4.195888   1.552906   -0.428199 H        1 UNL1     0.0342
     114 H         -4.094978   0.51555   0.997172 H        1 UNL1     0.0342
     115 H         0.369641   5.117838   1.256265 H        1 UNL1     0.0234
     116 H         -0.541385   4.329756   2.548452 H        1 UNL1     0.0234
     117 H         1.233786   4.362165   2.511496 H        1 UNL1     0.0234
     118 H         3.063229   4.094405   -4.897087 H        1 UNL1     0.0309
     119 H         3.091138   5.831053   -4.459665 H        1 UNL1     0.0309
     120 H         4.012051   5.208445   -5.811122 H        1 UNL1     0.0309
     121 H         2.548083   6.62608   0.830961 H        1 UNL1     0.0524
     122 H         2.584713   6.840214   -0.923936 H        1 UNL1     0.0524
     123 H         1.11453   7.270142   -0.014284 H        1 UNL1     0.0524
@<TRIPOS>BOND
     1     1     2    1
     2     1    42    1
     3     2     3    2
     4     3     4    1
     5     4     5    2
     6     5     7    1
     7     6    75    1
     8     6    76    1
     9     6    77    1
    10     7     9   am
    11     9    10    1
    12    10    11    2
    13    10    43    1
    14    11    14    1
    15    11    15    1
    16    12    13   ar
    17    12    27   ar
    18    12    43    1
    19    13    14    1
    20    13    30   ar
    21    14    17    2
    22    15    16    1
    23    16    17    1
    24    16    18    1
    25    16    22    1
    26    18    19    1
    27    19    20    1
    28    20    21    1
    29    21    22    1
    30    23    24    1
    31    23    88    1
    32    23    89    1
    33    24    25    1
    34    24    26    1
    35    24    90    1
    36    25    91    1
    37    25    92    1
    38    25    93    1
    39    26    94    1
    40    26    95    1
    41    26    96    1
    42    27    28   ar
    43    28    29   ar
    44    29    30   ar
    45    29    31    1
    46    30    33    1
    47    31    32    1
    48    32    33    1
    49    32    35    1
    50    34    97    1
    51    34    98    1
    52    34    99    1
    53    35    61    1
    54    36    37    1
    55    36    60    1
    56    37    38    1
    57    38    39    1
    58    39    40    1
    59    40    41    1
    60    41    42    1
    61    45   100    1
    62    47   101    1
    63    47   102    1
    64    47   103    1
    65    48   104    1
    66    49   105    1
    67    49   106    1
    68    49   107    1
    69    50   108    1
    70    51    59    1
    71    52   109    1
    72    52   110    1
    73    52   111    1
    74    53    54    1
    75    54    55    2
    76    54    56    1
    77    56   112    1
    78    56   113    1
    79    56   114    1
    80    57   115    1
    81    57   116    1
    82    57   117    1
    83    58   118    1
    84    58   119    1
    85    58   120    1
    86    59   121    1
    87    59   122    1
    88    59   123    1
    89    60    61    2
    90     1    47    1
    91     1    62    1
    92     2    63    1
    93     3    64    1
    94     4    65    1
    95     5     6    1
    96     7     8    2
    97     9    78    1
    98    15    79    1
    99    18    80    1
   100    18    81    1
   101    19    82    1
   102    19    83    1
   103    20    23    1
   104    21    84    1
   105    21    85    1
   106    22    86    1
   107    22    87    1
   108    27    45    1
   109    28    34    1
   110    32    58    1
   111    33    46    2
   112    36    51    1
   113    36    66    1
   114    37    52    1
   115    37    67    1
   116    38    53    1
   117    38    68    1
   118    42    48    1
   119    42    72    1
   120    43    44    2
   121    60    73    1
   122    61    74    1
   123    39    69    1
   124    39    57    1
   125    40    70    1
   126    40    50    1
   127    41    71    1
   128    41    49    1
