@<TRIPOS>MOLECULE
*****
 123 128 0 0 0
SMALL
GASTEIGER

@<TRIPOS>ATOM
     1 C         4.818563   2.327504   1.167669 C.3        1 UNL1     0.0009
     2 C         6.225105   3.35208   0.528202 C.2        1 UNL1     -0.0787
     3 C         7.573854   3.450668   0.011285 C.2        1 UNL1     -0.0649
     4 C         8.364198   4.826841   -0.578512 C.2        1 UNL1     -0.0542
     5 C         9.434817   5.29771   -1.377972 C.2        1 UNL1     0.0115
     6 C         10.720825   4.867578   -2.135925 C.3        1 UNL1     -0.0348
     7 C         9.406314   6.815984   -1.898567 C.2        1 UNL1     0.2441
     8 O         10.073041   7.706537   -1.389729 O.2        1 UNL1     -0.2702
     9 N         8.767799   7.002075   -3.137042 N.am        1 UNL1     -0.2772
     10 C         7.419872   7.210797   -2.955796 C.2        1 UNL1     0.1049
     11 C         6.677697   6.128157   -2.809888 C.2        1 UNL1     0.0801
     12 C         5.782024   8.559065   -1.63029 C.ar        1 UNL1     0.0753
     13 C         5.128313   7.32232   -1.327416 C.ar        1 UNL1     0.0305
     14 C         5.479798   6.082394   -2.015961 C.2        1 UNL1     0.0924
     15 N         6.984814   4.836041   -3.016388 N.pl3        1 UNL1     -0.3170
     16 C         5.774814   4.069548   -2.879851 C.3        1 UNL1     0.1275
     17 N         4.919313   4.878901   -1.936035 N.2        1 UNL1     -0.2557
     18 C         5.064039   4.102397   -4.229451 C.3        1 UNL1     0.0016
     19 C         6.018074   3.585128   -5.29427 C.3        1 UNL1     0.0026
     20 N         6.417557   2.228773   -4.945355 N.3        1 UNL1     -0.3018
     21 C         7.055631   2.086205   -3.635048 C.3        1 UNL1     0.0026
     22 C         6.078079   2.607422   -2.58024 C.3        1 UNL1     0.0016
     23 C         7.080749   1.538609   -6.033699 C.3        1 UNL1     0.0012
     24 C         6.080206   1.211896   -7.153488 C.3        1 UNL1     -0.0339
     25 C         6.166116   2.232863   -8.299918 C.3        1 UNL1     -0.0615
     26 C         6.299632   -0.206435   -7.650449 C.3        1 UNL1     -0.0615
     27 C         5.360392   9.757209   -1.058631 C.ar        1 UNL1     0.1347
     28 C         4.2761   9.849406   -0.204312 C.ar        1 UNL1     0.0342
     29 C         3.678495   8.612349   0.117747 C.ar        1 UNL1     0.1435
     30 C         4.112803   7.399696   -0.418974 C.ar        1 UNL1     0.0774
     31 O         2.544845   8.546626   0.849541 O.3        1 UNL1     -0.4436
     32 C         2.005504   7.24662   0.566755 C.3        1 UNL1     0.3143
     33 C         3.188658   6.417876   0.108996 C.2        1 UNL1     0.2504
     34 C         3.613968   11.121827   0.245828 C.3        1 UNL1     -0.0327
     35 O         1.562183   6.689637   1.810334 O.2        1 UNL1     -0.4528
     36 C         -1.34638   4.407362   0.950349 C.3        1 UNL1     0.0854
     37 C         -1.389491   3.176507   -0.034872 C.3        1 UNL1     0.0236
     38 C         -1.907071   1.806166   0.617832 C.3        1 UNL1     0.1131
     39 C         -1.265721   1.288137   1.967863 C.3        1 UNL1     0.0200
     40 C         0.386066   1.34234   2.193917 C.3        1 UNL1     0.0661
     41 C         1.556844   0.768304   1.108849 C.3        1 UNL1     0.0091
     42 C         3.255665   1.368626   0.763855 C.3        1 UNL1     0.0661
     43 C         6.867081   8.53691   -2.642427 C.2        1 UNL1     0.2131
     44 O         7.225394   9.519109   -3.266635 O.2        1 UNL1     -0.2851
     45 O         6.079554   10.909109   -1.370673 O.3        1 UNL1     -0.5056
     46 O         3.343149   5.219375   0.183704 O.2        1 UNL1     -0.2836
     47 C         5.107379   1.861772   2.620136 C.3        1 UNL1     -0.0566
     48 O         3.868345   0.019796   0.830164 O.3        1 UNL1     -0.3909
     49 C         0.898944   0.512974   -0.228861 C.3        1 UNL1     -0.0577
     50 O         0.780264   2.597471   2.710615 O.3        1 UNL1     -0.3910
     51 O         -1.596061   4.119138   2.307559 O.3        1 UNL1     -0.3753
     52 C         -0.213921   3.214496   -1.065183 C.3        1 UNL1     -0.0564
     53 O         -2.271188   0.759051   -0.393749 O.3        1 UNL1     -0.4608
     54 C         -2.373186   -0.584805   -0.145604 C.2        1 UNL1     0.3042
     55 O         -1.6366   -1.478878   -0.560229 O.2        1 UNL1     -0.2512
     56 C         -3.495397   -0.940584   0.787551 C.3        1 UNL1     0.0332
     57 C         -2.198886   1.786431   3.16748 C.3        1 UNL1     -0.0567
     58 C         1.032323   7.425856   -0.621658 C.3        1 UNL1     0.0210
     59 C         -2.135238   5.204008   3.061356 C.3        1 UNL1     0.0372
     60 C         -0.090972   5.205516   0.904943 C.2        1 UNL1     -0.0208
     61 C         0.659149   5.69386   1.893672 C.2        1 UNL1     0.0882
     62 H         4.214774   3.239675   1.245741 H        1 UNL1     0.0365
     63 H         5.817222   4.35749   0.651705 H        1 UNL1     0.0576
     64 H         8.171994   2.56165   -0.200812 H        1 UNL1     0.0615
     65 H         7.729895   5.653613   -0.247463 H        1 UNL1     0.0622
     66 H         -2.141643   5.075944   0.59174 H        1 UNL1     0.0645
     67 H         -2.21562   3.415794   -0.726834 H        1 UNL1     0.0362
     68 H         -2.934595   2.1029   0.877958 H        1 UNL1     0.0741
     69 H         -1.485337   0.234302   2.075614 H        1 UNL1     0.0359
     70 H         0.484276   0.647616   3.049939 H        1 UNL1     0.0600
     71 H         1.683124   -0.264327   1.489223 H        1 UNL1     0.0348
     72 H         2.982603   1.779471   1.746687 H        1 UNL1     0.0602
     73 H         0.113011   5.478734   -0.100537 H        1 UNL1     0.0628
     74 H         0.552184   5.417449   2.943144 H        1 UNL1     0.1022
     75 H         10.87295   3.764234   -2.055149 H        1 UNL1     0.0279
     76 H         10.725878   5.026598   -3.211915 H        1 UNL1     0.0279
     77 H         11.6392   5.248078   -1.665278 H        1 UNL1     0.0279
     78 H         8.874353   6.164827   -3.706022 H        1 UNL1     0.1553
     79 H         7.762295   4.530306   -3.572251 H        1 UNL1     0.1484
     80 H         4.157573   3.487832   -4.171184 H        1 UNL1     0.0317
     81 H         4.738361   5.118777   -4.475535 H        1 UNL1     0.0317
     82 H         6.895084   4.239286   -5.4076 H        1 UNL1     0.0428
     83 H         5.491782   3.618803   -6.248698 H        1 UNL1     0.0428
     84 H         7.273153   1.048489   -3.363678 H        1 UNL1     0.0428
     85 H         8.035727   2.581791   -3.601559 H        1 UNL1     0.0428
     86 H         6.520207   2.366179   -1.631391 H        1 UNL1     0.0317
     87 H         5.159531   2.008066   -2.591947 H        1 UNL1     0.0317
     88 H         7.854122   2.204002   -6.439212 H        1 UNL1     0.0429
     89 H         7.589249   0.632386   -5.680199 H        1 UNL1     0.0429
     90 H         5.063401   1.231744   -6.743699 H        1 UNL1     0.0308
     91 H         7.177489   2.281178   -8.714519 H        1 UNL1     0.0233
     92 H         5.463519   1.978685   -9.097012 H        1 UNL1     0.0233
     93 H         5.906443   3.247852   -7.975568 H        1 UNL1     0.0233
     94 H         5.726304   -0.378142   -8.567863 H        1 UNL1     0.0233
     95 H         7.357457   -0.362524   -7.879805 H        1 UNL1     0.0233
     96 H         5.987621   -0.943228   -6.90496 H        1 UNL1     0.0233
     97 H         2.752135   10.931   0.878331 H        1 UNL1     0.0280
     98 H         4.288942   11.751926   0.839664 H        1 UNL1     0.0280
     99 H         3.276914   11.693769   -0.634157 H        1 UNL1     0.0280
     100 H         5.557217   11.620058   -1.698298 H        1 UNL1     0.2922
     101 H         4.251848   1.307491   3.005487 H        1 UNL1     0.0236
     102 H         5.398251   2.676964   3.281829 H        1 UNL1     0.0236
     103 H         5.947138   1.148474   2.667064 H        1 UNL1     0.0236
     104 H         4.197543   -0.110173   1.741046 H        1 UNL1     0.2098
     105 H         0.63746   1.412919   -0.779804 H        1 UNL1     0.0234
     106 H         1.434685   -0.182884   -0.874376 H        1 UNL1     0.0234
     107 H         0.0   -0.0   0.0 H        1 UNL1     0.0234
     108 H         0.592674   3.265849   2.023702 H        1 UNL1     0.2098
     109 H         0.769406   3.215204   -0.574492 H        1 UNL1     0.0234
     110 H         -0.257258   2.401384   -1.797791 H        1 UNL1     0.0234
     111 H         -0.24139   4.125923   -1.677141 H        1 UNL1     0.0234
     112 H         -3.508086   -2.02116   0.959422 H        1 UNL1     0.0342
     113 H         -3.43381   -0.395993   1.728546 H        1 UNL1     0.0342
     114 H         -4.443261   -0.665175   0.304987 H        1 UNL1     0.0342
     115 H         -3.229067   1.418928   3.063285 H        1 UNL1     0.0234
     116 H         -1.844046   1.492778   4.157382 H        1 UNL1     0.0234
     117 H         -2.361657   2.877946   3.174002 H        1 UNL1     0.0234
     118 H         0.035799   7.769539   -0.293286 H        1 UNL1     0.0309
     119 H         1.411855   8.108509   -1.388562 H        1 UNL1     0.0309
     120 H         0.817535   6.48226   -1.135078 H        1 UNL1     0.0309
     121 H         -1.384933   5.993832   3.085378 H        1 UNL1     0.0524
     122 H         -3.044265   5.62362   2.599153 H        1 UNL1     0.0524
     123 H         -2.370604   4.879762   4.07109 H        1 UNL1     0.0524
@<TRIPOS>BOND
     1     1     2    1
     2     1    42    1
     3     2     3    2
     4     3     4    1
     5     4     5    2
     6     5     7    1
     7     6    75    1
     8     6    76    1
     9     6    77    1
    10     7     9   am
    11     9    10    1
    12    10    11    2
    13    10    43    1
    14    11    14    1
    15    11    15    1
    16    12    13   ar
    17    12    27   ar
    18    12    43    1
    19    13    14    1
    20    13    30   ar
    21    14    17    2
    22    15    16    1
    23    16    17    1
    24    16    18    1
    25    16    22    1
    26    18    19    1
    27    19    20    1
    28    20    21    1
    29    21    22    1
    30    23    24    1
    31    23    88    1
    32    23    89    1
    33    24    25    1
    34    24    26    1
    35    24    90    1
    36    25    91    1
    37    25    92    1
    38    25    93    1
    39    26    94    1
    40    26    95    1
    41    26    96    1
    42    27    28   ar
    43    28    29   ar
    44    29    30   ar
    45    29    31    1
    46    30    33    1
    47    31    32    1
    48    32    33    1
    49    32    35    1
    50    34    97    1
    51    34    98    1
    52    34    99    1
    53    35    61    1
    54    36    37    1
    55    36    60    1
    56    37    38    1
    57    38    39    1
    58    39    40    1
    59    40    41    1
    60    41    42    1
    61    45   100    1
    62    47   101    1
    63    47   102    1
    64    47   103    1
    65    48   104    1
    66    49   105    1
    67    49   106    1
    68    49   107    1
    69    50   108    1
    70    51    59    1
    71    52   109    1
    72    52   110    1
    73    52   111    1
    74    53    54    1
    75    54    55    2
    76    54    56    1
    77    56   112    1
    78    56   113    1
    79    56   114    1
    80    57   115    1
    81    57   116    1
    82    57   117    1
    83    58   118    1
    84    58   119    1
    85    58   120    1
    86    59   121    1
    87    59   122    1
    88    59   123    1
    89    60    61    2
    90     1    47    1
    91     1    62    1
    92     2    63    1
    93     3    64    1
    94     4    65    1
    95     5     6    1
    96     7     8    2
    97     9    78    1
    98    15    79    1
    99    18    80    1
   100    18    81    1
   101    19    82    1
   102    19    83    1
   103    20    23    1
   104    21    84    1
   105    21    85    1
   106    22    86    1
   107    22    87    1
   108    27    45    1
   109    28    34    1
   110    32    58    1
   111    33    46    2
   112    36    51    1
   113    36    66    1
   114    37    52    1
   115    37    67    1
   116    38    53    1
   117    38    68    1
   118    42    48    1
   119    42    72    1
   120    43    44    2
   121    60    73    1
   122    61    74    1
   123    39    69    1
   124    39    57    1
   125    40    70    1
   126    40    50    1
   127    41    71    1
   128    41    49    1
