@<TRIPOS>MOLECULE
*****
 123 128 0 0 0
SMALL
GASTEIGER

@<TRIPOS>ATOM
     1 C         5.120175   1.886927   0.484834 C.3        1 UNL1     0.0009
     2 C         6.516099   2.769575   -0.357405 C.2        1 UNL1     -0.0787
     3 C         7.793856   2.73815   -1.037402 C.2        1 UNL1     -0.0649
     4 C         8.615536   4.025342   -1.768385 C.2        1 UNL1     -0.0542
     5 C         9.613869   4.381311   -2.708435 C.2        1 UNL1     0.0115
     6 C         10.756185   3.822458   -3.600691 C.3        1 UNL1     -0.0348
     7 C         9.646096   5.882365   -3.27658 C.2        1 UNL1     0.2441
     8 O         10.44178   6.725082   -2.885121 O.2        1 UNL1     -0.2702
     9 N         8.876457   6.090549   -4.434365 N.am        1 UNL1     -0.2772
     10 C         7.583188   6.41925   -4.098608 C.2        1 UNL1     0.1049
     11 C         6.778264   5.408725   -3.824455 C.2        1 UNL1     0.0801
     12 C         6.238881   7.937562   -2.634059 C.ar        1 UNL1     0.0753
     13 C         5.528213   6.770013   -2.209337 C.ar        1 UNL1     0.0305
     14 C         5.68837   5.486958   -2.889904 C.2        1 UNL1     0.0924
     15 N         6.950016   4.09003   -4.01958 N.pl3        1 UNL1     -0.3170
     16 C         5.707333   3.434429   -3.709451 C.3        1 UNL1     0.1275
     17 N         5.044985   4.338706   -2.698856 N.2        1 UNL1     -0.2557
     18 C         4.839849   3.493332   -4.963127 C.3        1 UNL1     0.0016
     19 C         5.608671   2.868325   -6.116327 C.3        1 UNL1     0.0026
     20 N         5.935334   1.492117   -5.769382 N.3        1 UNL1     -0.3018
     21 C         6.717024   1.329183   -4.541872 C.3        1 UNL1     0.0026
     22 C         5.924032   1.959888   -3.395893 C.3        1 UNL1     0.0016
     23 C         6.399406   0.719361   -6.90434 C.3        1 UNL1     0.0012
     24 C         5.24428   0.451089   -7.881822 C.3        1 UNL1     -0.0339
     25 C         5.271125   1.430747   -9.066561 C.3        1 UNL1     -0.0615
     26 C         5.282917   -0.993296   -8.349838 C.3        1 UNL1     -0.0615
     27 C         5.991428   9.182013   -2.059405 C.ar        1 UNL1     0.1347
     28 C         5.032717   9.389427   -1.08375 C.ar        1 UNL1     0.0342
     29 C         4.379885   8.217231   -0.646794 C.ar        1 UNL1     0.1435
     30 C         4.64301   6.958146   -1.187802 C.ar        1 UNL1     0.0774
     31 O         3.344177   8.268438   0.219055 O.3        1 UNL1     -0.4436
     32 C         2.668788   7.012824   0.051256 C.3        1 UNL1     0.3143
     33 C         3.713807   6.07363   -0.516251 C.2        1 UNL1     0.2504
     34 C         4.53849   10.725416   -0.603154 C.3        1 UNL1     -0.0327
     35 O         2.338744   6.528581   1.358862 O.2        1 UNL1     -0.4528
     36 C         -0.831891   4.483795   0.941714 C.3        1 UNL1     0.0854
     37 C         -1.097974   3.236064   0.014412 C.3        1 UNL1     0.0236
     38 C         -1.641649   1.932817   0.774484 C.3        1 UNL1     0.1131
     39 C         -0.882695   1.396694   2.054652 C.3        1 UNL1     0.0200
     40 C         0.783188   1.314251   2.076483 C.3        1 UNL1     0.0661
     41 C         1.759156   0.613509   0.878962 C.3        1 UNL1     0.0091
     42 C         3.445697   1.056092   0.308782 C.3        1 UNL1     0.0661
     43 C         7.184546   7.795742   -3.768901 C.2        1 UNL1     0.2131
     44 O         7.542316   8.726881   -4.46727 O.2        1 UNL1     -0.2851
     45 O         6.758699   10.259185   -2.498078 O.3        1 UNL1     -0.5056
     46 O         3.777202   4.868621   -0.417316 O.2        1 UNL1     -0.2836
     47 C         5.547525   1.435919   1.907489 C.3        1 UNL1     -0.0566
     48 O         3.948765   -0.338326   0.349253 O.3        1 UNL1     -0.3909
     49 C         0.921716   0.381156   -0.358859 C.3        1 UNL1     -0.0577
     50 O         1.340358   2.543749   2.495552 O.3        1 UNL1     -0.3910
     51 O         -0.934244   4.253491   2.328767 O.3        1 UNL1     -0.3753
     52 C         -0.060107   3.145874   -1.151628 C.3        1 UNL1     -0.0564
     53 O         -2.213308   0.895049   -0.146694 O.3        1 UNL1     -0.4608
     54 C         -2.394007   -0.428126   0.160688 C.2        1 UNL1     0.3042
     55 O         -1.790612   -1.392793   -0.307469 O.2        1 UNL1     -0.2512
     56 C         -3.41731   -0.661557   1.235432 C.3        1 UNL1     0.0332
     57 C         -1.615728   2.004505   3.339721 C.3        1 UNL1     -0.0567
     58 C         1.573853   7.24431   -1.016012 C.3        1 UNL1     0.0210
     59 C         -1.284673   5.399982   3.102474 C.3        1 UNL1     0.0372
     60 C         0.469599   5.169384   0.715321 C.2        1 UNL1     -0.0208
     61 C         1.374143   5.6168   1.587309 C.2        1 UNL1     0.0882
     62 H         4.607862   2.84944   0.602379 H        1 UNL1     0.0365
     63 H         6.210816   3.809251   -0.221958 H        1 UNL1     0.0576
     64 H         8.285871   1.795703   -1.288048 H        1 UNL1     0.0615
     65 H         8.097385   4.911999   -1.393095 H        1 UNL1     0.0622
     66 H         -1.607735   5.208862   0.658184 H        1 UNL1     0.0645
     67 H         -1.981001   3.527581   -0.580433 H        1 UNL1     0.0362
     68 H         -2.601059   2.323619   1.146408 H        1 UNL1     0.0741
     69 H         -1.173238   0.36885   2.226498 H        1 UNL1     0.0359
     70 H         0.929259   0.636112   2.938951 H        1 UNL1     0.0600
     71 H         1.846203   -0.415935   1.278492 H        1 UNL1     0.0348
     72 H         3.331342   1.514314   1.301893 H        1 UNL1     0.0602
     73 H         0.569135   5.397813   -0.316745 H        1 UNL1     0.0628
     74 H         1.375736   5.377976   2.651356 H        1 UNL1     0.1022
     75 H         10.825823   2.712582   -3.49891 H        1 UNL1     0.0279
     76 H         10.640866   3.952458   -4.674409 H        1 UNL1     0.0279
     77 H         11.754002   4.134521   -3.259107 H        1 UNL1     0.0279
     78 H         8.842374   5.232743   -4.981251 H        1 UNL1     0.1553
     79 H         7.62476   3.704125   -4.654191 H        1 UNL1     0.1484
     80 H         3.90012   2.960861   -4.772993 H        1 UNL1     0.0317
     81 H         4.570937   4.527255   -5.204664 H        1 UNL1     0.0317
     82 H         6.515703   3.441336   -6.358945 H        1 UNL1     0.0428
     83 H         4.972678   2.922419   -7.000429 H        1 UNL1     0.0428
     84 H         6.880364   0.283984   -4.261354 H        1 UNL1     0.0428
     85 H         7.731148   1.739197   -4.645598 H        1 UNL1     0.0428
     86 H         6.459022   1.706174   -2.499565 H        1 UNL1     0.0317
     87 H         4.964932   1.441789   -3.274256 H        1 UNL1     0.0317
     88 H         7.168654   1.304902   -7.424621 H        1 UNL1     0.0429
     89 H         6.871487   -0.217813   -6.582442 H        1 UNL1     0.0429
     90 H         4.291237   0.569092   -7.352674 H        1 UNL1     0.0308
     91 H         6.223809   1.380974   -9.602301 H        1 UNL1     0.0233
     92 H         4.456605   1.217429   -9.762738 H        1 UNL1     0.0233
     93 H         5.138092   2.472411   -8.750218 H        1 UNL1     0.0233
     94 H         4.588098   -1.138738   -9.18405 H        1 UNL1     0.0233
     95 H         6.287682   -1.245835   -8.700031 H        1 UNL1     0.0233
     96 H         5.006169   -1.680864   -7.545706 H        1 UNL1     0.0233
     97 H         3.748967   10.626031   0.135769 H        1 UNL1     0.0280
     98 H         5.331432   11.310232   -0.118912 H        1 UNL1     0.0280
     99 H         4.143159   11.301224   -1.455945 H        1 UNL1     0.0280
     100 H         6.259975   10.999838   -2.79528 H        1 UNL1     0.2922
     101 H         4.703678   0.967593   2.413701 H        1 UNL1     0.0236
     102 H         5.984288   2.239929   2.498919 H        1 UNL1     0.0236
     103 H         6.325047   0.65439   1.878075 H        1 UNL1     0.0236
     104 H         4.376534   -0.472475   1.217578 H        1 UNL1     0.2098
     105 H         0.709357   1.279776   -0.932617 H        1 UNL1     0.0234
     106 H         1.288183   -0.408201   -1.015017 H        1 UNL1     0.0234
     107 H         0.0   -0.0   0.0 H        1 UNL1     0.0234
     108 H         1.1247   3.20774   1.812635 H        1 UNL1     0.2098
     109 H         0.973167   3.07461   -0.784234 H        1 UNL1     0.0234
     110 H         -0.260712   2.320771   -1.843513 H        1 UNL1     0.0234
     111 H         -0.08813   4.040081   -1.78846 H        1 UNL1     0.0234
     112 H         -3.497482   -1.732194   1.446746 H        1 UNL1     0.0342
     113 H         -3.194921   -0.100046   2.141574 H        1 UNL1     0.0342
     114 H         -4.391782   -0.31814   0.861758 H        1 UNL1     0.0342
     115 H         -2.674614   1.714294   3.381279 H        1 UNL1     0.0234
     116 H         -1.158967   1.716985   4.2888 H        1 UNL1     0.0234
     117 H         -1.696974   3.104945   3.320418 H        1 UNL1     0.0234
     118 H         0.65855   7.683854   -0.582392 H        1 UNL1     0.0309
     119 H         1.911204   7.869064   -1.849126 H        1 UNL1     0.0309
     120 H         1.217957   6.309492   -1.462733 H        1 UNL1     0.0309
     121 H         -0.47474   6.12259   3.006542 H        1 UNL1     0.0524
     122 H         -2.206349   5.8842   2.739041 H        1 UNL1     0.0524
     123 H         -1.418916   5.123546   4.144422 H        1 UNL1     0.0524
@<TRIPOS>BOND
     1     1     2    1
     2     1    42    1
     3     2     3    2
     4     3     4    1
     5     4     5    2
     6     5     7    1
     7     6    75    1
     8     6    76    1
     9     6    77    1
    10     7     9   am
    11     9    10    1
    12    10    11    2
    13    10    43    1
    14    11    14    1
    15    11    15    1
    16    12    13   ar
    17    12    27   ar
    18    12    43    1
    19    13    14    1
    20    13    30   ar
    21    14    17    2
    22    15    16    1
    23    16    17    1
    24    16    18    1
    25    16    22    1
    26    18    19    1
    27    19    20    1
    28    20    21    1
    29    21    22    1
    30    23    24    1
    31    23    88    1
    32    23    89    1
    33    24    25    1
    34    24    26    1
    35    24    90    1
    36    25    91    1
    37    25    92    1
    38    25    93    1
    39    26    94    1
    40    26    95    1
    41    26    96    1
    42    27    28   ar
    43    28    29   ar
    44    29    30   ar
    45    29    31    1
    46    30    33    1
    47    31    32    1
    48    32    33    1
    49    32    35    1
    50    34    97    1
    51    34    98    1
    52    34    99    1
    53    35    61    1
    54    36    37    1
    55    36    60    1
    56    37    38    1
    57    38    39    1
    58    39    40    1
    59    40    41    1
    60    41    42    1
    61    45   100    1
    62    47   101    1
    63    47   102    1
    64    47   103    1
    65    48   104    1
    66    49   105    1
    67    49   106    1
    68    49   107    1
    69    50   108    1
    70    51    59    1
    71    52   109    1
    72    52   110    1
    73    52   111    1
    74    53    54    1
    75    54    55    2
    76    54    56    1
    77    56   112    1
    78    56   113    1
    79    56   114    1
    80    57   115    1
    81    57   116    1
    82    57   117    1
    83    58   118    1
    84    58   119    1
    85    58   120    1
    86    59   121    1
    87    59   122    1
    88    59   123    1
    89    60    61    2
    90     1    47    1
    91     1    62    1
    92     2    63    1
    93     3    64    1
    94     4    65    1
    95     5     6    1
    96     7     8    2
    97     9    78    1
    98    15    79    1
    99    18    80    1
   100    18    81    1
   101    19    82    1
   102    19    83    1
   103    20    23    1
   104    21    84    1
   105    21    85    1
   106    22    86    1
   107    22    87    1
   108    27    45    1
   109    28    34    1
   110    32    58    1
   111    33    46    2
   112    36    51    1
   113    36    66    1
   114    37    52    1
   115    37    67    1
   116    38    53    1
   117    38    68    1
   118    42    48    1
   119    42    72    1
   120    43    44    2
   121    60    73    1
   122    61    74    1
   123    39    69    1
   124    39    57    1
   125    40    70    1
   126    40    50    1
   127    41    71    1
   128    41    49    1
