@<TRIPOS>MOLECULE
*****
 123 128 0 0 0
SMALL
GASTEIGER

@<TRIPOS>ATOM
     1 C         4.925875   2.317382   0.614205 C.3        1 UNL1     0.0009
     2 C         6.310424   3.222863   -0.222555 C.2        1 UNL1     -0.0787
     3 C         7.631443   3.227195   -0.814955 C.2        1 UNL1     -0.0649
     4 C         8.407939   4.499921   -1.617189 C.2        1 UNL1     -0.0542
     5 C         9.441359   4.842481   -2.523706 C.2        1 UNL1     0.0115
     6 C         10.68012   4.292798   -3.283076 C.3        1 UNL1     -0.0348
     7 C         9.405706   6.281289   -3.234728 C.2        1 UNL1     0.2441
     8 O         10.109872   7.216549   -2.879812 O.2        1 UNL1     -0.2702
     9 N         8.705736   6.318914   -4.453242 N.am        1 UNL1     -0.2772
     10 C         7.372024   6.576003   -4.233148 C.2        1 UNL1     0.1049
     11 C         6.624264   5.536155   -3.910978 C.2        1 UNL1     0.0801
     12 C         5.823789   8.116106   -3.013155 C.ar        1 UNL1     0.0753
     13 C         5.170545   6.941935   -2.519999 C.ar        1 UNL1     0.0305
     14 C         5.469078   5.616889   -3.058685 C.2        1 UNL1     0.0924
     15 N         6.903043   4.222355   -3.963307 N.pl3        1 UNL1     -0.3170
     16 C         5.691828   3.504049   -3.667931 C.3        1 UNL1     0.1275
     17 N         4.89769   4.445107   -2.795304 N.2        1 UNL1     -0.2557
     18 C         4.911859   3.376859   -4.972988 C.3        1 UNL1     0.0016
     19 C         5.801912   2.707843   -6.008272 C.3        1 UNL1     0.0026
     20 N         6.201155   1.400078   -5.50689 N.3        1 UNL1     -0.3018
     21 C         6.905021   1.414868   -4.222864 C.3        1 UNL1     0.0026
     22 C         5.991014   2.086977   -3.196825 C.3        1 UNL1     0.0016
     23 C         6.797273   0.562394   -6.528443 C.3        1 UNL1     0.0012
     24 C         5.735239   0.11408   -7.544739 C.3        1 UNL1     -0.0339
     25 C         6.024635   -1.300351   -8.073599 C.3        1 UNL1     -0.0615
     26 C         4.350947   0.207475   -6.926846 C.3        1 UNL1     -0.0615
     27 C         5.448539   9.386062   -2.581277 C.ar        1 UNL1     0.1347
     28 C         4.411779   9.609101   -1.692777 C.ar        1 UNL1     0.0342
     29 C         3.81556   8.435976   -1.183399 C.ar        1 UNL1     0.1435
     30 C         4.205105   7.155885   -1.579432 C.ar        1 UNL1     0.0774
     31 O         2.721012   8.487638   -0.393271 O.3        1 UNL1     -0.4436
     32 C         2.15047   7.173013   -0.477622 C.3        1 UNL1     0.3143
     33 C         3.296976   6.268842   -0.882853 C.2        1 UNL1     0.2504
     34 C         3.790999   10.941823   -1.378795 C.3        1 UNL1     -0.0327
     35 O         1.765548   6.789824   0.848369 O.2        1 UNL1     -0.4528
     36 C         -1.213962   4.474042   0.438787 C.3        1 UNL1     0.0854
     37 C         -1.324864   3.127608   -0.375056 C.3        1 UNL1     0.0236
     38 C         -1.825624   1.863349   0.475021 C.3        1 UNL1     0.1131
     39 C         -1.12137   1.510935   1.846918 C.3        1 UNL1     0.0200
     40 C         0.54056   1.560965   1.980808 C.3        1 UNL1     0.0661
     41 C         1.645229   0.82875   0.921952 C.3        1 UNL1     0.0091
     42 C         3.331442   1.345728   0.417152 C.3        1 UNL1     0.0661
     43 C         6.853974   7.942163   -4.067063 C.2        1 UNL1     0.2131
     44 O         7.192062   8.82843   -4.830584 O.2        1 UNL1     -0.2851
     45 O         6.165537   10.47363   -3.075794 O.3        1 UNL1     -0.5056
     46 O         3.439314   5.087124   -0.661185 O.2        1 UNL1     -0.2836
     47 C         5.284165   2.037027   2.098459 C.3        1 UNL1     -0.0566
     48 O         3.928873   0.004774   0.626994 O.3        1 UNL1     -0.3909
     49 C         0.914872   0.416321   -0.336609 C.3        1 UNL1     -0.0577
     50 O         0.977825   2.864122   2.309905 O.3        1 UNL1     -0.3910
     51 O         -1.396026   4.36811   1.832725 O.3        1 UNL1     -0.3753
     52 C         -0.204455   3.009154   -1.459307 C.3        1 UNL1     -0.0564
     53 O         -2.256015   0.702071   -0.372637 O.3        1 UNL1     -0.4608
     54 C         -2.044776   -0.619333   -0.077344 C.2        1 UNL1     0.3042
     55 O         -1.215021   -1.374197   -0.582839 O.2        1 UNL1     -0.2512
     56 C         -2.915191   -1.133884   1.033659 C.3        1 UNL1     0.0332
     57 C         -1.983776   2.178091   3.017103 C.3        1 UNL1     -0.0567
     58 C         1.118853   7.216944   -1.628868 C.3        1 UNL1     0.0210
     59 C         -2.627236   4.900941   2.318603 C.3        1 UNL1     0.0372
     60 C         0.047785   5.234578   0.22727 C.2        1 UNL1     -0.0208
     61 C         0.855035   5.831234   1.105389 C.2        1 UNL1     0.0882
     62 H         4.339111   3.24383   0.603529 H        1 UNL1     0.0365
     63 H         5.92289   4.243712   -0.210172 H        1 UNL1     0.0576
     64 H         8.205854   2.306547   -0.939721 H        1 UNL1     0.0615
     65 H         7.802823   5.374899   -1.36474 H        1 UNL1     0.0622
     66 H         -2.018006   5.106521   0.03688 H        1 UNL1     0.0645
     67 H         -2.182856   3.29212   -1.049849 H        1 UNL1     0.0362
     68 H         -2.834107   2.211491   0.745726 H        1 UNL1     0.0741
     69 H         -1.348951   0.484343   2.101328 H        1 UNL1     0.0359
     70 H         0.674266   0.980512   2.913684 H        1 UNL1     0.0600
     71 H         1.777593   -0.14857   1.426218 H        1 UNL1     0.0348
     72 H         3.115668   1.885127   1.350858 H        1 UNL1     0.0602
     73 H         0.202434   5.371858   -0.814117 H        1 UNL1     0.0628
     74 H         0.799523   5.694527   2.185883 H        1 UNL1     0.1022
     75 H         11.340818   3.717354   -2.590706 H        1 UNL1     0.0279
     76 H         10.484063   3.571537   -4.073274 H        1 UNL1     0.0279
     77 H         11.36014   5.088883   -3.62001 H        1 UNL1     0.0279
     78 H         8.771277   5.413383   -4.913453 H        1 UNL1     0.1553
     79 H         7.646244   3.832154   -4.513153 H        1 UNL1     0.1484
     80 H         4.001644   2.793065   -4.790066 H        1 UNL1     0.0317
     81 H         4.587204   4.359331   -5.33215 H        1 UNL1     0.0317
     82 H         6.680354   3.324382   -6.249377 H        1 UNL1     0.0428
     83 H         5.226859   2.62872   -6.931367 H        1 UNL1     0.0428
     84 H         7.122719   0.41665   -3.830464 H        1 UNL1     0.0428
     85 H         7.891991   1.891057   -4.303187 H        1 UNL1     0.0428
     86 H         6.478989   1.961257   -2.248108 H        1 UNL1     0.0317
     87 H         5.065271   1.509487   -3.084563 H        1 UNL1     0.0317
     88 H         7.557079   1.154486   -7.055147 H        1 UNL1     0.0429
     89 H         7.311563   -0.300657   -6.086376 H        1 UNL1     0.0429
     90 H         5.732594   0.809938   -8.39208 H        1 UNL1     0.0308
     91 H         6.927541   -1.316992   -8.691325 H        1 UNL1     0.0233
     92 H         6.142454   -2.005163   -7.24718 H        1 UNL1     0.0233
     93 H         5.207899   -1.689672   -8.693442 H        1 UNL1     0.0233
     94 H         3.681711   -0.527752   -7.386631 H        1 UNL1     0.0233
     95 H         4.404364   -0.008499   -5.856115 H        1 UNL1     0.0233
     96 H         3.918529   1.202393   -7.065122 H        1 UNL1     0.0233
     97 H         2.727139   10.957085   -1.596049 H        1 UNL1     0.0280
     98 H         3.884518   11.201886   -0.316309 H        1 UNL1     0.0280
     99 H         4.277866   11.726665   -1.980524 H        1 UNL1     0.0280
     100 H         7.100676   10.384224   -3.01972 H        1 UNL1     0.2922
     101 H         4.734567   2.720957   2.744861 H        1 UNL1     0.0236
     102 H         6.355846   2.062712   2.292944 H        1 UNL1     0.0236
     103 H         4.964446   1.031376   2.418832 H        1 UNL1     0.0236
     104 H         3.517519   -0.379692   1.425708 H        1 UNL1     0.2098
     105 H         0.67932   1.237625   -1.00876 H        1 UNL1     0.0234
     106 H         1.381685   -0.400356   -0.887111 H        1 UNL1     0.0234
     107 H         0.0   -0.0   0.0 H        1 UNL1     0.0234
     108 H         1.941197   2.895214   2.152687 H        1 UNL1     0.2098
     109 H         -0.254893   3.819559   -2.199855 H        1 UNL1     0.0234
     110 H         0.803659   2.964252   -1.033355 H        1 UNL1     0.0234
     111 H         -0.292991   2.076709   -2.032591 H        1 UNL1     0.0234
     112 H         -2.682522   -2.184422   1.232607 H        1 UNL1     0.0342
     113 H         -2.821513   -0.534874   1.938234 H        1 UNL1     0.0342
     114 H         -3.961711   -1.077334   0.703869 H        1 UNL1     0.0342
     115 H         -1.964537   1.573391   3.934249 H        1 UNL1     0.0234
     116 H         -1.66519   3.187991   3.282909 H        1 UNL1     0.0234
     117 H         -3.066192   2.207483   2.803905 H        1 UNL1     0.0234
     118 H         0.081277   7.142468   -1.258875 H        1 UNL1     0.0309
     119 H         1.212366   8.109419   -2.255722 H        1 UNL1     0.0309
     120 H         1.207697   6.360241   -2.305827 H        1 UNL1     0.0309
     121 H         -2.474764   5.187622   3.358758 H        1 UNL1     0.0524
     122 H         -2.938722   5.80395   1.767614 H        1 UNL1     0.0524
     123 H         -3.413881   4.155203   2.246778 H        1 UNL1     0.0524
@<TRIPOS>BOND
     1     1     2    1
     2     1    42    1
     3     2     3    2
     4     3     4    1
     5     4     5    2
     6     5     7    1
     7     6    75    1
     8     6    76    1
     9     6    77    1
    10     7     9   am
    11     9    10    1
    12    10    11    2
    13    10    43    1
    14    11    14    1
    15    11    15    1
    16    12    13   ar
    17    12    27   ar
    18    12    43    1
    19    13    14    1
    20    13    30   ar
    21    14    17    2
    22    15    16    1
    23    16    17    1
    24    16    18    1
    25    16    22    1
    26    18    19    1
    27    19    20    1
    28    20    21    1
    29    21    22    1
    30    23    24    1
    31    23    88    1
    32    23    89    1
    33    24    25    1
    34    24    26    1
    35    24    90    1
    36    25    91    1
    37    25    92    1
    38    25    93    1
    39    26    94    1
    40    26    95    1
    41    26    96    1
    42    27    28   ar
    43    28    29   ar
    44    29    30   ar
    45    29    31    1
    46    30    33    1
    47    31    32    1
    48    32    33    1
    49    32    35    1
    50    34    97    1
    51    34    98    1
    52    34    99    1
    53    35    61    1
    54    36    37    1
    55    36    60    1
    56    37    38    1
    57    38    39    1
    58    39    40    1
    59    40    41    1
    60    41    42    1
    61    45   100    1
    62    47   101    1
    63    47   102    1
    64    47   103    1
    65    48   104    1
    66    49   105    1
    67    49   106    1
    68    49   107    1
    69    50   108    1
    70    51    59    1
    71    52   109    1
    72    52   110    1
    73    52   111    1
    74    53    54    1
    75    54    55    2
    76    54    56    1
    77    56   112    1
    78    56   113    1
    79    56   114    1
    80    57   115    1
    81    57   116    1
    82    57   117    1
    83    58   118    1
    84    58   119    1
    85    58   120    1
    86    59   121    1
    87    59   122    1
    88    59   123    1
    89    60    61    2
    90     1    47    1
    91     1    62    1
    92     2    63    1
    93     3    64    1
    94     4    65    1
    95     5     6    1
    96     7     8    2
    97     9    78    1
    98    15    79    1
    99    18    80    1
   100    18    81    1
   101    19    82    1
   102    19    83    1
   103    20    23    1
   104    21    84    1
   105    21    85    1
   106    22    86    1
   107    22    87    1
   108    27    45    1
   109    28    34    1
   110    32    58    1
   111    33    46    2
   112    36    51    1
   113    36    66    1
   114    37    52    1
   115    37    67    1
   116    38    53    1
   117    38    68    1
   118    42    48    1
   119    42    72    1
   120    43    44    2
   121    60    73    1
   122    61    74    1
   123    39    69    1
   124    39    57    1
   125    40    70    1
   126    40    50    1
   127    41    71    1
   128    41    49    1
