@<TRIPOS>MOLECULE
*****
 123 128 0 0 0
SMALL
GASTEIGER

@<TRIPOS>ATOM
     1 C         4.722784   2.70715   -0.615146 C.3        1 UNL1     0.0009
     2 C         6.533035   2.568369   -0.990334 C.2        1 UNL1     -0.0787
     3 C         7.909881   2.540897   -0.543582 C.2        1 UNL1     -0.0649
     4 C         9.296714   2.232601   -1.464454 C.2        1 UNL1     -0.0542
     5 C         10.656699   1.838336   -1.418899 C.2        1 UNL1     0.0115
     6 C         11.856673   1.571966   -0.468935 C.3        1 UNL1     -0.0348
     7 C         11.358812   1.313346   -2.76367 C.2        1 UNL1     0.2441
     8 O         12.115457   2.003771   -3.432496 O.2        1 UNL1     -0.2702
     9 N         11.254369   -0.071641   -2.98059 N.am        1 UNL1     -0.2772
     10 C         10.096935   -0.364634   -3.664566 C.2        1 UNL1     0.1049
     11 C         8.999406   -0.462129   -2.936454 C.2        1 UNL1     0.0801
     12 C         8.754833   0.299447   -5.668336 C.ar        1 UNL1     0.0753
     13 C         7.628534   0.382291   -4.78902 C.ar        1 UNL1     0.0305
     14 C         7.688114   -0.123752   -3.41956 C.2        1 UNL1     0.0924
     15 N         8.851019   -0.529351   -1.602291 N.pl3        1 UNL1     -0.3170
     16 C         7.464974   -0.800635   -1.327449 C.3        1 UNL1     0.1275
     17 N         6.724981   -0.219221   -2.507318 N.2        1 UNL1     -0.2557
     18 C         7.274792   -2.312092   -1.411298 C.3        1 UNL1     0.0016
     19 C         8.247306   -2.978622   -0.451326 C.3        1 UNL1     0.0026
     20 N         7.983258   -2.49122   0.895428 N.3        1 UNL1     -0.3018
     21 C         8.081208   -1.039615   1.061611 C.3        1 UNL1     0.0026
     22 C         7.092709   -0.390583   0.091291 C.3        1 UNL1     0.0016
     23 C         8.644338   -3.276107   1.918936 C.3        1 UNL1     0.0012
     24 C         9.59521   -4.301304   1.281308 C.3        1 UNL1     -0.0339
     25 C         9.653316   -5.600527   2.101491 C.3        1 UNL1     -0.0615
     26 C         9.186574   -4.56622   -0.157308 C.3        1 UNL1     -0.0615
     27 C         8.654653   0.67242   -7.006608 C.ar        1 UNL1     0.1347
     28 C         7.475329   1.103948   -7.587151 C.ar        1 UNL1     0.0342
     29 C         6.392023   1.223966   -6.690932 C.ar        1 UNL1     0.1435
     30 C         6.487034   0.888403   -5.339788 C.ar        1 UNL1     0.0774
     31 O         5.148789   1.526203   -7.124552 O.3        1 UNL1     -0.4436
     32 C         4.280874   1.098693   -6.063971 C.3        1 UNL1     0.3143
     33 C         5.149225   1.086203   -4.822188 C.2        1 UNL1     0.2504
     34 C         7.230218   1.279405   -9.059983 C.3        1 UNL1     -0.0327
     35 O         3.299489   2.125814   -5.876469 O.2        1 UNL1     -0.4528
     36 C         0.173064   0.364488   -4.639018 C.3        1 UNL1     0.0854
     37 C         -0.016927   -0.555143   -3.371853 C.3        1 UNL1     0.0236
     38 C         -1.182578   -0.094784   -2.371317 C.3        1 UNL1     0.1131
     39 C         -1.233906   1.401697   -1.861241 C.3        1 UNL1     0.0200
     40 C         0.160662   2.176647   -1.374341 C.3        1 UNL1     0.0661
     41 C         1.307883   1.565988   -0.284117 C.3        1 UNL1     0.0091
     42 C         3.124312   1.810925   -0.206697 C.3        1 UNL1     0.0661
     43 C         10.009927   -0.281348   -5.13012 C.2        1 UNL1     0.2131
     44 O         10.88291   -0.762609   -5.829422 O.2        1 UNL1     -0.2851
     45 O         9.809449   0.604736   -7.783334 O.3        1 UNL1     -0.5056
     46 O         4.814867   1.229619   -3.66742 O.2        1 UNL1     -0.2836
     47 C         4.350795   4.178767   -0.289644 C.3        1 UNL1     -0.0566
     48 O         3.137305   2.105304   1.246674 O.3        1 UNL1     -0.3909
     49 C         1.052947   0.088672   -0.08402 C.3        1 UNL1     -0.0577
     50 O         0.812273   2.775264   -2.476513 O.3        1 UNL1     -0.3910
     51 O         -0.574193   1.559859   -4.6503 O.3        1 UNL1     -0.3753
     52 C         1.345367   -1.123175   -2.85567 C.3        1 UNL1     -0.0564
     53 O         -1.576706   -1.151826   -1.381543 O.3        1 UNL1     -0.4608
     54 C         -2.861392   -1.464162   -1.021047 C.2        1 UNL1     0.3042
     55 O         -3.378874   -2.580074   -0.992901 O.2        1 UNL1     -0.2512
     56 C         -3.66358   -0.278278   -0.5662 C.3        1 UNL1     0.0332
     57 C         -2.237102   2.202363   -2.815551 C.3        1 UNL1     -0.0567
     58 C         3.865641   -0.353277   -6.396979 C.3        1 UNL1     0.0210
     59 C         -0.875716   2.065995   -5.949829 C.3        1 UNL1     0.0372
     60 C         1.582304   0.73637   -4.940527 C.2        1 UNL1     -0.0208
     61 C         2.113057   1.913157   -5.275517 C.2        1 UNL1     0.0882
     62 H         4.510128   2.558975   -1.68076 H        1 UNL1     0.0365
     63 H         6.512318   2.528118   -2.081398 H        1 UNL1     0.0576
     64 H         8.167847   2.560783   0.517628 H        1 UNL1     0.0615
     65 H         8.946995   2.313243   -2.497254 H        1 UNL1     0.0622
     66 H         -0.16211   -0.255257   -5.482593 H        1 UNL1     0.0645
     67 H         -0.435399   -1.491382   -3.780384 H        1 UNL1     0.0362
     68 H         -2.051528   -0.205858   -3.037733 H        1 UNL1     0.0741
     69 H         -1.851842   1.446089   -0.974341 H        1 UNL1     0.0359
     70 H         -0.278024   3.026584   -0.817364 H        1 UNL1     0.0600
     71 H         0.91567   1.98423   0.663617 H        1 UNL1     0.0348
     72 H         2.733196   2.634494   -0.821577 H        1 UNL1     0.0602
     73 H         2.174753   -0.143751   -4.981005 H        1 UNL1     0.0628
     74 H         1.590602   2.867772   -5.204885 H        1 UNL1     0.1022
     75 H         11.969943   2.407434   0.26332 H        1 UNL1     0.0279
     76 H         11.778738   0.701678   0.178827 H        1 UNL1     0.0279
     77 H         12.825717   1.605818   -0.988077 H        1 UNL1     0.0279
     78 H         11.21254   -0.555742   -2.086177 H        1 UNL1     0.1553
     79 H         9.589798   -0.781368   -0.971715 H        1 UNL1     0.1484
     80 H         6.235091   -2.556005   -1.161709 H        1 UNL1     0.0317
     81 H         7.444855   -2.671856   -2.431739 H        1 UNL1     0.0317
     82 H         9.293091   -2.797185   -0.739989 H        1 UNL1     0.0428
     83 H         8.096027   -4.055755   -0.528461 H        1 UNL1     0.0428
     84 H         7.800757   -0.692613   2.060985 H        1 UNL1     0.0428
     85 H         9.112501   -0.682312   0.934777 H        1 UNL1     0.0428
     86 H         7.094823   0.656149   0.332821 H        1 UNL1     0.0317
     87 H         6.069839   -0.704645   0.332537 H        1 UNL1     0.0317
     88 H         9.23461   -2.593826   2.54453 H        1 UNL1     0.0429
     89 H         7.916217   -3.767285   2.577235 H        1 UNL1     0.0429
     90 H         10.603733   -3.873874   1.232346 H        1 UNL1     0.0308
     91 H         10.136785   -5.43848   3.06953 H        1 UNL1     0.0233
     92 H         8.649478   -5.99978   2.264325 H        1 UNL1     0.0233
     93 H         10.217896   -6.390965   1.592284 H        1 UNL1     0.0233
     94 H         8.371076   -3.895175   -0.447992 H        1 UNL1     0.0233
     95 H         10.031426   -4.379506   -0.826133 H        1 UNL1     0.0233
     96 H         8.850188   -5.597909   -0.293066 H        1 UNL1     0.0233
     97 H         6.192382   1.515824   -9.275001 H        1 UNL1     0.0280
     98 H         7.819906   2.103495   -9.482357 H        1 UNL1     0.0280
     99 H         7.489755   0.348792   -9.590733 H        1 UNL1     0.0280
     100 H         10.366737   -0.129354   -7.593163 H        1 UNL1     0.2922
     101 H         3.831864   4.623233   -1.138652 H        1 UNL1     0.0236
     102 H         5.204783   4.77689   0.026485 H        1 UNL1     0.0236
     103 H         3.633597   4.249713   0.545093 H        1 UNL1     0.0236
     104 H         3.187442   3.075691   1.350629 H        1 UNL1     0.2098
     105 H         1.374699   -0.538714   -0.911471 H        1 UNL1     0.0234
     106 H         1.420794   -0.313141   0.859994 H        1 UNL1     0.0234
     107 H         0.0   0.0   0.0 H        1 UNL1     0.0234
     108 H         1.715463   3.008896   -2.187668 H        1 UNL1     0.2098
     109 H         2.167306   -0.403109   -2.972431 H        1 UNL1     0.0234
     110 H         1.302806   -1.465223   -1.81599 H        1 UNL1     0.0234
     111 H         1.650424   -2.016115   -3.417403 H        1 UNL1     0.0234
     112 H         -4.66833   -0.598507   -0.27418 H        1 UNL1     0.0342
     113 H         -3.174448   0.260715   0.243787 H        1 UNL1     0.0342
     114 H         -3.763682   0.413702   -1.413731 H        1 UNL1     0.0342
     115 H         -2.611836   1.572781   -3.634324 H        1 UNL1     0.0234
     116 H         -3.103833   2.619189   -2.298751 H        1 UNL1     0.0234
     117 H         -1.751754   3.017901   -3.378824 H        1 UNL1     0.0234
     118 H         2.824304   -0.414065   -6.75882 H        1 UNL1     0.0309
     119 H         4.526659   -0.832711   -7.125951 H        1 UNL1     0.0309
     120 H         3.864881   -1.003049   -5.514991 H        1 UNL1     0.0309
     121 H         0.004968   2.597681   -6.309081 H        1 UNL1     0.0524
     122 H         -1.095243   1.261633   -6.671526 H        1 UNL1     0.0524
     123 H         -1.726832   2.739403   -5.90274 H        1 UNL1     0.0524
@<TRIPOS>BOND
     1     1     2    1
     2     1    42    1
     3     2     3    2
     4     3     4    1
     5     4     5    2
     6     5     7    1
     7     6    75    1
     8     6    76    1
     9     6    77    1
    10     7     9   am
    11     9    10    1
    12    10    11    2
    13    10    43    1
    14    11    14    1
    15    11    15    1
    16    12    13   ar
    17    12    27   ar
    18    12    43    1
    19    13    14    1
    20    13    30   ar
    21    14    17    2
    22    15    16    1
    23    16    17    1
    24    16    18    1
    25    16    22    1
    26    18    19    1
    27    19    20    1
    28    20    21    1
    29    21    22    1
    30    23    24    1
    31    23    88    1
    32    23    89    1
    33    24    25    1
    34    24    26    1
    35    24    90    1
    36    25    91    1
    37    25    92    1
    38    25    93    1
    39    26    94    1
    40    26    95    1
    41    26    96    1
    42    27    28   ar
    43    28    29   ar
    44    29    30   ar
    45    29    31    1
    46    30    33    1
    47    31    32    1
    48    32    33    1
    49    32    35    1
    50    34    97    1
    51    34    98    1
    52    34    99    1
    53    35    61    1
    54    36    37    1
    55    36    60    1
    56    37    38    1
    57    38    39    1
    58    39    40    1
    59    40    41    1
    60    41    42    1
    61    45   100    1
    62    47   101    1
    63    47   102    1
    64    47   103    1
    65    48   104    1
    66    49   105    1
    67    49   106    1
    68    49   107    1
    69    50   108    1
    70    51    59    1
    71    52   109    1
    72    52   110    1
    73    52   111    1
    74    53    54    1
    75    54    55    2
    76    54    56    1
    77    56   112    1
    78    56   113    1
    79    56   114    1
    80    57   115    1
    81    57   116    1
    82    57   117    1
    83    58   118    1
    84    58   119    1
    85    58   120    1
    86    59   121    1
    87    59   122    1
    88    59   123    1
    89    60    61    2
    90     1    47    1
    91     1    62    1
    92     2    63    1
    93     3    64    1
    94     4    65    1
    95     5     6    1
    96     7     8    2
    97     9    78    1
    98    15    79    1
    99    18    80    1
   100    18    81    1
   101    19    82    1
   102    19    83    1
   103    20    23    1
   104    21    84    1
   105    21    85    1
   106    22    86    1
   107    22    87    1
   108    27    45    1
   109    28    34    1
   110    32    58    1
   111    33    46    2
   112    36    51    1
   113    36    66    1
   114    37    52    1
   115    37    67    1
   116    38    53    1
   117    38    68    1
   118    42    48    1
   119    42    72    1
   120    43    44    2
   121    60    73    1
   122    61    74    1
   123    39    69    1
   124    39    57    1
   125    40    70    1
   126    40    50    1
   127    41    71    1
   128    41    49    1
