@<TRIPOS>MOLECULE
*****
 123 128 0 0 0
SMALL
GASTEIGER

@<TRIPOS>ATOM
     1 C         -1.497555   -3.106106   3.077698 C.3        1 UNL1     0.0009
     2 C         -0.628687   -4.516401   3.910269 C.2        1 UNL1     -0.0787
     3 C         -0.461392   -5.938566   4.123591 C.2        1 UNL1     -0.0649
     4 C         0.731575   -6.720787   5.035356 C.2        1 UNL1     -0.0542
     5 C         1.406046   -7.946779   5.256962 C.2        1 UNL1     0.0115
     6 C         1.39943   -9.463346   4.920355 C.3        1 UNL1     -0.0348
     7 C         2.807641   -7.931972   6.03946 C.2        1 UNL1     0.2441
     8 O         2.916768   -8.251876   7.215163 O.2        1 UNL1     -0.2702
     9 N         3.938766   -7.779505   5.218813 N.am        1 UNL1     -0.2772
     10 C         4.21736   -6.445594   5.028056 C.2        1 UNL1     0.1049
     11 C         3.528447   -5.83692   4.079828 C.2        1 UNL1     0.0801
     12 C         4.511198   -4.285419   6.254693 C.ar        1 UNL1     0.0753
     13 C         3.589204   -3.718581   5.318087 C.ar        1 UNL1     0.0305
     14 C         3.170414   -4.444994   4.121429 C.2        1 UNL1     0.0924
     15 N         2.740915   -6.35039   3.119271 N.pl3        1 UNL1     -0.3170
     16 C         2.364755   -5.276418   2.238735 C.3        1 UNL1     0.1275
     17 N         2.410769   -4.042547   3.106588 N.2        1 UNL1     -0.2557
     18 C         3.485447   -5.11675   1.215869 C.3        1 UNL1     0.0016
     19 C         3.703333   -6.451327   0.520872 C.3        1 UNL1     0.0026
     20 N         2.459826   -6.85214   -0.122607 N.3        1 UNL1     -0.3018
     21 C         1.307213   -6.972441   0.772591 C.3        1 UNL1     0.0026
     22 C         1.103747   -5.619428   1.456589 C.3        1 UNL1     0.0016
     23 C         2.634964   -7.948057   -1.054775 C.3        1 UNL1     0.0012
     24 C         2.251548   -9.282321   -0.39562 C.3        1 UNL1     -0.0339
     25 C         1.193685   -9.083644   0.702338 C.3        1 UNL1     -0.0615
     26 C         1.783269   -10.268999   -1.451063 C.3        1 UNL1     -0.0615
     27 C         4.998576   -3.542586   7.327437 C.ar        1 UNL1     0.1347
     28 C         4.668498   -2.216546   7.543578 C.ar        1 UNL1     0.0342
     29 C         3.721593   -1.694347   6.637023 C.ar        1 UNL1     0.1435
     30 C         3.1971   -2.437667   5.57891 C.ar        1 UNL1     0.0774
     31 O         3.381491   -0.38698   6.648376 O.3        1 UNL1     -0.4436
     32 C         2.809931   -0.149678   5.353047 C.3        1 UNL1     0.3143
     33 C         2.341037   -1.507991   4.872069 C.2        1 UNL1     0.2504
     34 C         5.339849   -1.288202   8.517008 C.3        1 UNL1     -0.0327
     35 O         1.638078   0.65231   5.544954 O.2        1 UNL1     -0.4528
     36 C         1.280102   2.741974   2.396423 C.3        1 UNL1     0.0854
     37 C         1.155985   2.270497   0.89648 C.3        1 UNL1     0.0236
     38 C         -0.13156   2.825355   0.117954 C.3        1 UNL1     0.1131
     39 C         -1.566838   2.671946   0.765032 C.3        1 UNL1     0.0200
     40 C         -2.01685   1.24006   1.49279 C.3        1 UNL1     0.0661
     41 C         -1.865764   -0.308483   0.816923 C.3        1 UNL1     0.0091
     42 C         -1.55047   -1.929774   1.615302 C.3        1 UNL1     0.0661
     43 C         5.000516   -5.662179   5.995156 C.2        1 UNL1     0.2131
     44 O         6.03689   -6.106046   6.455207 O.2        1 UNL1     -0.2851
     45 O         5.856798   -4.183242   8.218759 O.3        1 UNL1     -0.5056
     46 O         1.447288   -1.765658   4.097037 O.2        1 UNL1     -0.2836
     47 C         -2.900589   -2.890566   3.706203 C.3        1 UNL1     -0.0566
     48 O         -2.630356   -2.630654   0.87928 O.3        1 UNL1     -0.3909
     49 C         -0.958766   -0.227509   -0.390675 C.3        1 UNL1     -0.0577
     50 O         -1.613028   1.217655   2.847098 O.3        1 UNL1     -0.3910
     51 O         0.171027   3.439626   2.916678 O.3        1 UNL1     -0.3753
     52 C         1.68099   0.810789   0.700081 C.3        1 UNL1     -0.0564
     53 O         -0.049365   2.661819   -1.371619 O.3        1 UNL1     -0.4608
     54 C         0.958656   3.136813   -2.169242 C.2        1 UNL1     0.3042
     55 O         1.99196   2.553208   -2.494089 O.2        1 UNL1     -0.2512
     56 C         0.691238   4.506762   -2.724618 C.3        1 UNL1     0.0332
     57 C         -1.897371   4.034885   1.534005 C.3        1 UNL1     -0.0567
     58 C         3.966964   0.328847   4.445404 C.3        1 UNL1     0.0210
     59 C         0.449617   4.235237   4.067875 C.3        1 UNL1     0.0372
     60 C         1.604002   1.663646   3.369797 C.2        1 UNL1     -0.0208
     61 C         1.084071   1.396419   4.568549 C.2        1 UNL1     0.0882
     62 H         -0.817114   -2.4121   3.585702 H        1 UNL1     0.0365
     63 H         0.043847   -3.974979   4.578871 H        1 UNL1     0.0576
     64 H         -1.029916   -6.674175   3.550208 H        1 UNL1     0.0615
     65 H         1.180713   -5.915287   5.622662 H        1 UNL1     0.0622
     66 H         2.1437   3.421841   2.401492 H        1 UNL1     0.0645
     67 H         1.972129   2.804306   0.37926 H        1 UNL1     0.0362
     68 H         0.087263   3.903719   0.145712 H        1 UNL1     0.0741
     69 H         -2.312376   2.788456   -0.010214 H        1 UNL1     0.0359
     70 H         -3.113609   1.383312   1.533517 H        1 UNL1     0.0600
     71 H         -2.858814   -0.40732   0.336259 H        1 UNL1     0.0348
     72 H         -1.916563   -1.265663   2.411699 H        1 UNL1     0.0602
     73 H         2.462251   1.1364   3.034135 H        1 UNL1     0.0628
     74 H         0.173274   1.850162   4.960727 H        1 UNL1     0.1022
     75 H         1.699433   -9.630366   3.857747 H        1 UNL1     0.0279
     76 H         2.107982   -10.084079   5.46415 H        1 UNL1     0.0279
     77 H         0.388683   -9.896912   4.930975 H        1 UNL1     0.0279
     78 H         3.755674   -8.187988   4.304649 H        1 UNL1     0.1553
     79 H         2.775338   -7.308817   2.824033 H        1 UNL1     0.1484
     80 H         3.207621   -4.333283   0.500496 H        1 UNL1     0.0317
     81 H         4.411549   -4.786458   1.698459 H        1 UNL1     0.0317
     82 H         4.052832   -7.223296   1.222175 H        1 UNL1     0.0428
     83 H         4.507607   -6.315386   -0.20281 H        1 UNL1     0.0428
     84 H         0.370093   -7.196271   0.25344 H        1 UNL1     0.0428
     85 H         1.424927   -7.804006   1.481083 H        1 UNL1     0.0428
     86 H         0.179735   -5.704641   1.997818 H        1 UNL1     0.0317
     87 H         0.888267   -4.848895   0.706294 H        1 UNL1     0.0317
     88 H         1.969718   -7.777496   -1.91131 H        1 UNL1     0.0429
     89 H         3.660328   -7.979484   -1.445181 H        1 UNL1     0.0429
     90 H         3.144752   -9.729176   0.056842 H        1 UNL1     0.0308
     91 H         0.590313   -9.985732   0.8412 H        1 UNL1     0.0233
     92 H         1.666548   -8.818913   1.650983 H        1 UNL1     0.0233
     93 H         0.498048   -8.268372   0.469409 H        1 UNL1     0.0233
     94 H         0.97476   -9.830418   -2.04587 H        1 UNL1     0.0233
     95 H         2.607177   -10.510666   -2.128364 H        1 UNL1     0.0233
     96 H         1.416126   -11.193994   -0.997677 H        1 UNL1     0.0233
     97 H         4.770776   -0.375849   8.668658 H        1 UNL1     0.0280
     98 H         5.451982   -1.741141   9.510753 H        1 UNL1     0.0280
     99 H         6.337691   -1.013985   8.137256 H        1 UNL1     0.0280
     100 H         5.810615   -5.122992   8.199807 H        1 UNL1     0.2922
     101 H         -3.598428   -3.627528   3.30926 H        1 UNL1     0.0236
     102 H         -3.270697   -1.872522   3.58963 H        1 UNL1     0.0236
     103 H         -2.897964   -3.065667   4.795022 H        1 UNL1     0.0236
     104 H         -2.428838   -2.563526   -0.074583 H        1 UNL1     0.2098
     105 H         -0.877277   -1.153671   -0.954053 H        1 UNL1     0.0234
     106 H         -1.167171   0.605727   -1.061654 H        1 UNL1     0.0234
     107 H         0.0   0.0   0.0 H        1 UNL1     0.0234
     108 H         -0.692015   1.540737   2.880577 H        1 UNL1     0.2098
     109 H         1.71925   0.521514   -0.359432 H        1 UNL1     0.0234
     110 H         2.659125   0.639367   1.162261 H        1 UNL1     0.0234
     111 H         1.024837   0.075969   1.185312 H        1 UNL1     0.0234
     112 H         -0.330748   4.81361   -2.482268 H        1 UNL1     0.0342
     113 H         1.413828   5.240458   -2.370503 H        1 UNL1     0.0342
     114 H         0.777167   4.456185   -3.818794 H        1 UNL1     0.0342
     115 H         -0.984307   4.550267   1.86246 H        1 UNL1     0.0234
     116 H         -2.482257   4.74544   0.94658 H        1 UNL1     0.0234
     117 H         -2.414186   3.882403   2.497122 H        1 UNL1     0.0234
     118 H         4.462873   1.230136   4.84635 H        1 UNL1     0.0309
     119 H         4.720424   -0.444678   4.266068 H        1 UNL1     0.0309
     120 H         3.620621   0.649773   3.45689 H        1 UNL1     0.0309
     121 H         1.532584   4.30554   4.165841 H        1 UNL1     0.0524
     122 H         0.057649   5.261496   3.972008 H        1 UNL1     0.0524
     123 H         0.02207   3.775919   4.954624 H        1 UNL1     0.0524
@<TRIPOS>BOND
     1     1     2    1
     2     1    42    1
     3     2     3    2
     4     3     4    1
     5     4     5    2
     6     5     7    1
     7     6    75    1
     8     6    76    1
     9     6    77    1
    10     7     9   am
    11     9    10    1
    12    10    11    2
    13    10    43    1
    14    11    14    1
    15    11    15    1
    16    12    13   ar
    17    12    27   ar
    18    12    43    1
    19    13    14    1
    20    13    30   ar
    21    14    17    2
    22    15    16    1
    23    16    17    1
    24    16    18    1
    25    16    22    1
    26    18    19    1
    27    19    20    1
    28    20    21    1
    29    21    22    1
    30    23    24    1
    31    23    88    1
    32    23    89    1
    33    24    25    1
    34    24    26    1
    35    24    90    1
    36    25    91    1
    37    25    92    1
    38    25    93    1
    39    26    94    1
    40    26    95    1
    41    26    96    1
    42    27    28   ar
    43    28    29   ar
    44    29    30   ar
    45    29    31    1
    46    30    33    1
    47    31    32    1
    48    32    33    1
    49    32    35    1
    50    34    97    1
    51    34    98    1
    52    34    99    1
    53    35    61    1
    54    36    37    1
    55    36    60    1
    56    37    38    1
    57    38    39    1
    58    39    40    1
    59    40    41    1
    60    41    42    1
    61    45   100    1
    62    47   101    1
    63    47   102    1
    64    47   103    1
    65    48   104    1
    66    49   105    1
    67    49   106    1
    68    49   107    1
    69    50   108    1
    70    51    59    1
    71    52   109    1
    72    52   110    1
    73    52   111    1
    74    53    54    1
    75    54    55    2
    76    54    56    1
    77    56   112    1
    78    56   113    1
    79    56   114    1
    80    57   115    1
    81    57   116    1
    82    57   117    1
    83    58   118    1
    84    58   119    1
    85    58   120    1
    86    59   121    1
    87    59   122    1
    88    59   123    1
    89    60    61    2
    90     1    47    1
    91     1    62    1
    92     2    63    1
    93     3    64    1
    94     4    65    1
    95     5     6    1
    96     7     8    2
    97     9    78    1
    98    15    79    1
    99    18    80    1
   100    18    81    1
   101    19    82    1
   102    19    83    1
   103    20    23    1
   104    21    84    1
   105    21    85    1
   106    22    86    1
   107    22    87    1
   108    27    45    1
   109    28    34    1
   110    32    58    1
   111    33    46    2
   112    36    51    1
   113    36    66    1
   114    37    52    1
   115    37    67    1
   116    38    53    1
   117    38    68    1
   118    42    48    1
   119    42    72    1
   120    43    44    2
   121    60    73    1
   122    61    74    1
   123    39    69    1
   124    39    57    1
   125    40    70    1
   126    40    50    1
   127    41    71    1
   128    41    49    1
