@<TRIPOS>MOLECULE
*****
 123 128 0 0 0
SMALL
GASTEIGER

@<TRIPOS>ATOM
     1 C         5.064863   2.065421   0.284226 C.3        1 UNL1     0.0009
     2 C         6.509095   2.729555   -0.669794 C.2        1 UNL1     -0.0787
     3 C         7.82503   2.547472   -1.245302 C.2        1 UNL1     -0.0649
     4 C         8.68972   3.622947   -2.226129 C.2        1 UNL1     -0.0542
     5 C         9.742492   3.747086   -3.16599 C.2        1 UNL1     0.0115
     6 C         10.935461   2.999426   -3.822611 C.3        1 UNL1     -0.0348
     7 C         9.809598   5.059104   -4.088538 C.2        1 UNL1     0.2441
     8 O         10.581208   5.984035   -3.874886 O.2        1 UNL1     -0.2702
     9 N         9.110378   4.960779   -5.304094 N.am        1 UNL1     -0.2772
     10 C         7.799668   5.344548   -5.13652 C.2        1 UNL1     0.1049
     11 C         6.979098   4.423158   -4.665428 C.2        1 UNL1     0.0801
     12 C         6.371728   7.161192   -4.178329 C.ar        1 UNL1     0.0753
     13 C         5.63617   6.126684   -3.517001 C.ar        1 UNL1     0.0305
     14 C         5.835579   4.716763   -3.844734 C.2        1 UNL1     0.0924
     15 N         7.161167   3.100069   -4.514392 N.pl3        1 UNL1     -0.3170
     16 C         5.90174   2.525115   -4.122571 C.3        1 UNL1     0.1275
     17 N         5.181104   3.643561   -3.41019 N.2        1 UNL1     -0.2557
     18 C         5.110443   2.256928   -5.39914 C.3        1 UNL1     0.0016
     19 C         5.946059   1.374793   -6.313017 C.3        1 UNL1     0.0026
     20 N         6.250464   0.133519   -5.61473 N.3        1 UNL1     -0.3018
     21 C         6.957598   0.293232   -4.342401 C.3        1 UNL1     0.0026
     22 C         6.098289   1.178741   -3.438324 C.3        1 UNL1     0.0016
     23 C         6.780674   -0.891434   -6.491652 C.3        1 UNL1     0.0012
     24 C         5.684486   -1.414624   -7.433141 C.3        1 UNL1     -0.0339
     25 C         5.71834   -0.694021   -8.790949 C.3        1 UNL1     -0.0615
     26 C         5.812019   -2.919331   -7.59553 C.3        1 UNL1     -0.0615
     27 C         6.091451   8.506062   -3.948357 C.ar        1 UNL1     0.1347
     28 C         5.076534   8.936862   -3.11265 C.ar        1 UNL1     0.0342
     29 C         4.397976   7.901727   -2.434994 C.ar        1 UNL1     0.1435
     30 C         4.691885   6.551308   -2.627881 C.ar        1 UNL1     0.0774
     31 O         3.312617   8.152781   -1.670812 O.3        1 UNL1     -0.4436
     32 C         2.647469   6.885599   -1.558107 C.3        1 UNL1     0.3143
     33 C         3.723702   5.849364   -1.811386 C.2        1 UNL1     0.2504
     34 C         4.555585   10.343392   -3.010739 C.3        1 UNL1     -0.0327
     35 O         2.239832   6.738467   -0.192298 O.2        1 UNL1     -0.4528
     36 C         -0.901893   4.60962   -0.267526 C.3        1 UNL1     0.0854
     37 C         -1.113257   3.166278   -0.867202 C.3        1 UNL1     0.0236
     38 C         -1.702178   2.086454   0.161826 C.3        1 UNL1     0.1131
     39 C         -1.021153   1.897653   1.577039 C.3        1 UNL1     0.0200
     40 C         0.640415   1.846855   1.71505 C.3        1 UNL1     0.0661
     41 C         1.685392   0.883258   0.789245 C.3        1 UNL1     0.0091
     42 C         3.403206   1.193327   0.224997 C.3        1 UNL1     0.0661
     43 C         7.383144   6.753984   -5.185046 C.2        1 UNL1     0.2131
     44 O         7.782538   7.486288   -6.07215 O.2        1 UNL1     -0.2851
     45 O         6.884275   9.450383   -4.597301 O.3        1 UNL1     -0.5056
     46 O         3.780193   4.708218   -1.410825 O.2        1 UNL1     -0.2836
     47 C         5.406455   1.989906   1.796706 C.3        1 UNL1     -0.0566
     48 O         3.901928   -0.139583   0.641824 O.3        1 UNL1     -0.3909
     49 C         0.922923   0.337449   -0.397443 C.3        1 UNL1     -0.0577
     50 O         1.172582   3.149799   1.844897 O.3        1 UNL1     -0.3910
     51 O         -1.08678   4.731415   1.124744 O.3        1 UNL1     -0.3753
     52 C         -0.007908   2.802576   -1.911651 C.3        1 UNL1     -0.0564
     53 O         -2.218784   0.843611   -0.502091 O.3        1 UNL1     -0.4608
     54 C         -2.406027   -0.366909   0.112329 C.2        1 UNL1     0.3042
     55 O         -1.774215   -1.40574   -0.076037 O.2        1 UNL1     -0.2512
     56 C         -3.479524   -0.348371   1.163031 C.3        1 UNL1     0.0332
     57 C         -1.828905   2.796563   2.624738 C.3        1 UNL1     -0.0567
     58 C         1.61816   6.827827   -2.710807 C.3        1 UNL1     0.0210
     59 C         -1.519781   6.018888   1.561537 C.3        1 UNL1     0.0372
     60 C         0.411276   5.235343   -0.582513 C.2        1 UNL1     -0.0208
     61 C         1.262662   5.899016   0.200701 C.2        1 UNL1     0.0882
     62 H         4.547185   3.019456   0.127574 H        1 UNL1     0.0365
     63 H         6.197073   3.765701   -0.816468 H        1 UNL1     0.0576
     64 H         8.330382   1.579355   -1.223484 H        1 UNL1     0.0615
     65 H         8.15082   4.56779   -2.11504 H        1 UNL1     0.0622
     66 H         -1.658946   5.229904   -0.76769 H        1 UNL1     0.0645
     67 H         -1.959102   3.287554   -1.566057 H        1 UNL1     0.0362
     68 H         -2.681727   2.544105   0.368128 H        1 UNL1     0.0741
     69 H         -1.32218   0.941237   1.983316 H        1 UNL1     0.0359
     70 H         0.734394   1.407609   2.726629 H        1 UNL1     0.0600
     71 H         1.747736   -0.012529   1.437808 H        1 UNL1     0.0348
     72 H         3.230298   1.883277   1.063679 H        1 UNL1     0.0602
     73 H         0.572225   5.200303   -1.631377 H        1 UNL1     0.0628
     74 H         1.200752   5.933405   1.288921 H        1 UNL1     0.1022
     75 H         11.015456   1.960302   -3.421541 H        1 UNL1     0.0279
     76 H         10.871871   2.832183   -4.895483 H        1 UNL1     0.0279
     77 H         11.910599   3.418691   -3.534473 H        1 UNL1     0.0279
     78 H         9.108257   3.993221   -5.620169 H        1 UNL1     0.1553
     79 H         7.872191   2.577559   -4.992265 H        1 UNL1     0.1484
     80 H         4.160665   1.775529   -5.136567 H        1 UNL1     0.0317
     81 H         4.857157   3.193917   -5.906633 H        1 UNL1     0.0317
     82 H         6.866352   1.88188   -6.638342 H        1 UNL1     0.0428
     83 H         5.363846   1.197478   -7.217804 H        1 UNL1     0.0428
     84 H         7.103171   -0.646438   -3.800515 H        1 UNL1     0.0428
     85 H         7.976405   0.678685   -4.486542 H        1 UNL1     0.0428
     86 H         6.5788   1.164396   -2.477652 H        1 UNL1     0.0317
     87 H         5.133261   0.693885   -3.246668 H        1 UNL1     0.0317
     88 H         7.577813   -0.442672   -7.098675 H        1 UNL1     0.0429
     89 H         7.234823   -1.710328   -5.918996 H        1 UNL1     0.0429
     90 H         4.704159   -1.245127   -6.972225 H        1 UNL1     0.0308
     91 H         6.69243   -0.805975   -9.276456 H        1 UNL1     0.0233
     92 H         4.940787   -1.081523   -9.453416 H        1 UNL1     0.0233
     93 H         5.531516   0.382609   -8.697136 H        1 UNL1     0.0233
     94 H         5.16178   -3.268325   -8.404991 H        1 UNL1     0.0233
     95 H         6.84191   -3.181317   -7.853699 H        1 UNL1     0.0233
     96 H         5.533606   -3.444764   -6.67772 H        1 UNL1     0.0233
     97 H         3.729366   10.422143   -2.310459 H        1 UNL1     0.0280
     98 H         5.321435   11.043369   -2.651903 H        1 UNL1     0.0280
     99 H         4.2034   10.67907   -3.99987 H        1 UNL1     0.0280
     100 H         6.404796   10.084902   -5.1004 H        1 UNL1     0.2922
     101 H         4.537905   1.637468   2.352642 H        1 UNL1     0.0236
     102 H         5.795018   2.9263   2.195665 H        1 UNL1     0.0236
     103 H         6.193684   1.246741   2.006872 H        1 UNL1     0.0236
     104 H         4.283862   -0.045097   1.536345 H        1 UNL1     0.2098
     105 H         0.704474   1.072828   -1.167709 H        1 UNL1     0.0234
     106 H         1.354185   -0.559115   -0.842541 H        1 UNL1     0.0234
     107 H         0.0   -0.0   0.0 H        1 UNL1     0.0234
     108 H         0.980364   3.625796   1.014087 H        1 UNL1     0.2098
     109 H         1.000103   2.821845   -1.474325 H        1 UNL1     0.0234
     110 H         -0.177475   1.83641   -2.399004 H        1 UNL1     0.0234
     111 H         0.015019   3.519695   -2.743012 H        1 UNL1     0.0234
     112 H         -3.57514   -1.340333   1.614932 H        1 UNL1     0.0342
     113 H         -3.296622   0.410766   1.922045 H        1 UNL1     0.0342
     114 H         -4.433688   -0.107477   0.674457 H        1 UNL1     0.0342
     115 H         -2.883046   2.494715   2.694473 H        1 UNL1     0.0234
     116 H         -1.415266   2.780637   3.635034 H        1 UNL1     0.0234
     117 H         -1.929224   3.85087   2.314392 H        1 UNL1     0.0234
     118 H         0.679586   7.350032   -2.455098 H        1 UNL1     0.0309
     119 H         2.005472   7.228149   -3.653109 H        1 UNL1     0.0309
     120 H         1.287622   5.806306   -2.928397 H        1 UNL1     0.0309
     121 H         -0.744528   6.736047   1.293166 H        1 UNL1     0.0524
     122 H         -2.452186   6.337035   1.066117 H        1 UNL1     0.0524
     123 H         -1.674199   6.01868   2.636827 H        1 UNL1     0.0524
@<TRIPOS>BOND
     1     1     2    1
     2     1    42    1
     3     2     3    2
     4     3     4    1
     5     4     5    2
     6     5     7    1
     7     6    75    1
     8     6    76    1
     9     6    77    1
    10     7     9   am
    11     9    10    1
    12    10    11    2
    13    10    43    1
    14    11    14    1
    15    11    15    1
    16    12    13   ar
    17    12    27   ar
    18    12    43    1
    19    13    14    1
    20    13    30   ar
    21    14    17    2
    22    15    16    1
    23    16    17    1
    24    16    18    1
    25    16    22    1
    26    18    19    1
    27    19    20    1
    28    20    21    1
    29    21    22    1
    30    23    24    1
    31    23    88    1
    32    23    89    1
    33    24    25    1
    34    24    26    1
    35    24    90    1
    36    25    91    1
    37    25    92    1
    38    25    93    1
    39    26    94    1
    40    26    95    1
    41    26    96    1
    42    27    28   ar
    43    28    29   ar
    44    29    30   ar
    45    29    31    1
    46    30    33    1
    47    31    32    1
    48    32    33    1
    49    32    35    1
    50    34    97    1
    51    34    98    1
    52    34    99    1
    53    35    61    1
    54    36    37    1
    55    36    60    1
    56    37    38    1
    57    38    39    1
    58    39    40    1
    59    40    41    1
    60    41    42    1
    61    45   100    1
    62    47   101    1
    63    47   102    1
    64    47   103    1
    65    48   104    1
    66    49   105    1
    67    49   106    1
    68    49   107    1
    69    50   108    1
    70    51    59    1
    71    52   109    1
    72    52   110    1
    73    52   111    1
    74    53    54    1
    75    54    55    2
    76    54    56    1
    77    56   112    1
    78    56   113    1
    79    56   114    1
    80    57   115    1
    81    57   116    1
    82    57   117    1
    83    58   118    1
    84    58   119    1
    85    58   120    1
    86    59   121    1
    87    59   122    1
    88    59   123    1
    89    60    61    2
    90     1    47    1
    91     1    62    1
    92     2    63    1
    93     3    64    1
    94     4    65    1
    95     5     6    1
    96     7     8    2
    97     9    78    1
    98    15    79    1
    99    18    80    1
   100    18    81    1
   101    19    82    1
   102    19    83    1
   103    20    23    1
   104    21    84    1
   105    21    85    1
   106    22    86    1
   107    22    87    1
   108    27    45    1
   109    28    34    1
   110    32    58    1
   111    33    46    2
   112    36    51    1
   113    36    66    1
   114    37    52    1
   115    37    67    1
   116    38    53    1
   117    38    68    1
   118    42    48    1
   119    42    72    1
   120    43    44    2
   121    60    73    1
   122    61    74    1
   123    39    69    1
   124    39    57    1
   125    40    70    1
   126    40    50    1
   127    41    71    1
   128    41    49    1
