@<TRIPOS>MOLECULE
*****
 123 128 0 0 0
SMALL
GASTEIGER

@<TRIPOS>ATOM
     1 C         -4.928433   0.984165   1.949658 C.3        1 UNL1     0.0009
     2 C         -5.927283   1.918336   3.20132 C.2        1 UNL1     -0.0787
     3 C         -6.54846   1.997933   4.506636 C.2        1 UNL1     -0.0649
     4 C         -7.327957   3.32673   5.208804 C.2        1 UNL1     -0.0542
     5 C         -7.761184   3.908927   6.425537 C.2        1 UNL1     0.0115
     6 C         -7.959097   3.646373   7.943832 C.3        1 UNL1     -0.0348
     7 C         -8.105892   5.476459   6.457292 C.2        1 UNL1     0.2441
     8 O         -9.251049   5.906422   6.440781 O.2        1 UNL1     -0.2702
     9 N         -7.019212   6.312292   6.768196 N.am        1 UNL1     -0.2772
     10 C         -6.33294   6.65284   5.625227 C.2        1 UNL1     0.1049
     11 C         -5.448005   5.772602   5.193607 C.2        1 UNL1     0.0801
     12 C         -6.656168   7.524272   3.302844 C.ar        1 UNL1     0.0753
     13 C         -5.85563   6.422658   2.862168 C.ar        1 UNL1     0.0305
     14 C         -5.117374   5.587191   3.806639 C.2        1 UNL1     0.0924
     15 N         -4.948565   4.681645   5.799329 N.pl3        1 UNL1     -0.3170
     16 C         -3.890617   4.165301   4.972051 C.3        1 UNL1     0.1275
     17 N         -4.258409   4.598767   3.573995 N.2        1 UNL1     -0.2557
     18 C         -2.620649   4.930234   5.332271 C.3        1 UNL1     0.0016
     19 C         -2.375175   4.789231   6.826075 C.3        1 UNL1     0.0026
     20 N         -2.243708   3.374763   7.147049 N.3        1 UNL1     -0.3018
     21 C         -3.39296   2.544606   6.780406 C.3        1 UNL1     0.0026
     22 C         -3.618635   2.69777   5.275246 C.3        1 UNL1     0.0016
     23 C         -1.714948   3.145018   8.476814 C.3        1 UNL1     0.0012
     24 C         -2.007765   4.347383   9.38804 C.3        1 UNL1     -0.0339
     25 C         -3.115159   4.025734   10.405035 C.3        1 UNL1     -0.0615
     26 C         -0.732306   4.802493   10.075686 C.3        1 UNL1     -0.0615
     27 C         -7.258836   8.388504   2.391794 C.ar        1 UNL1     0.1347
     28 C         -7.101271   8.276192   1.0219 C.ar        1 UNL1     0.0342
     29 C         -6.349198   7.15565   0.609668 C.ar        1 UNL1     0.1435
     30 C         -5.769529   6.260693   1.509812 C.ar        1 UNL1     0.0774
     31 O         -6.014469   6.96942   -0.685817 O.3        1 UNL1     -0.4436
     32 C         -4.90708   6.056716   -0.646662 C.3        1 UNL1     0.3143
     33 C         -5.04056   5.328392   0.675435 C.2        1 UNL1     0.2504
     34 C         -7.505031   9.303067   0.00082 C.3        1 UNL1     -0.0327
     35 O         -5.117609   5.086933   -1.680321 O.2        1 UNL1     -0.4528
     36 C         -1.659834   3.99805   -2.805583 C.3        1 UNL1     0.0854
     37 C         -0.486021   3.374783   -1.956334 C.3        1 UNL1     0.0236
     38 C         0.072934   1.974109   -2.501702 C.3        1 UNL1     0.1131
     39 C         -0.934776   0.797194   -2.820547 C.3        1 UNL1     0.0200
     40 C         -2.185127   0.448405   -1.772975 C.3        1 UNL1     0.0661
     41 C         -2.045016   0.228338   -0.096804 C.3        1 UNL1     0.0091
     42 C         -3.225143   0.606565   1.255839 C.3        1 UNL1     0.0661
     43 C         -6.750126   7.768975   4.763512 C.2        1 UNL1     0.2131
     44 O         -7.047875   8.845814   5.247765 O.2        1 UNL1     -0.2851
     45 O         -8.059104   9.408436   2.90243 O.3        1 UNL1     -0.5056
     46 O         -4.652257   4.219408   0.967373 O.2        1 UNL1     -0.2836
     47 C         -5.7889   -0.130548   1.29621 C.3        1 UNL1     -0.0566
     48 O         -3.066825   -0.71161   1.916494 O.3        1 UNL1     -0.3909
     49 C         -0.688383   0.726561   0.349082 C.3        1 UNL1     -0.0577
     50 O         -3.318135   1.242048   -2.063054 O.3        1 UNL1     -0.3910
     51 O         -2.186826   3.177411   -3.823553 O.3        1 UNL1     -0.3753
     52 C         -0.655559   3.66416   -0.429092 C.3        1 UNL1     -0.0564
     53 O         1.392335   1.580522   -1.904546 O.3        1 UNL1     -0.4608
     54 C         2.610886   1.699691   -2.520064 C.2        1 UNL1     0.3042
     55 O         2.915669   2.469115   -3.430521 O.2        1 UNL1     -0.2512
     56 C         3.668226   0.804608   -1.939055 C.3        1 UNL1     0.0332
     57 C         -1.267024   0.857   -4.383944 C.3        1 UNL1     -0.0567
     58 C         -3.626861   6.923518   -0.611687 C.3        1 UNL1     0.0210
     59 C         -1.218233   2.645184   -4.726009 C.3        1 UNL1     0.0372
     60 C         -2.816963   4.49282   -2.010967 C.2        1 UNL1     -0.0208
     61 C         -4.127552   4.339534   -2.204887 C.2        1 UNL1     0.0882
     62 H         -4.98484   1.853805   1.283883 H        1 UNL1     0.0365
     63 H         -6.182017   2.814087   2.631047 H        1 UNL1     0.0576
     64 H         -6.417652   1.210085   5.251816 H        1 UNL1     0.0615
     65 H         -7.479013   4.012863   4.371018 H        1 UNL1     0.0622
     66 H         -1.217166   4.886101   -3.278293 H        1 UNL1     0.0645
     67 H         0.370279   4.043632   -2.151142 H        1 UNL1     0.0362
     68 H         0.460877   2.298924   -3.479208 H        1 UNL1     0.0741
     69 H         -0.384314   -0.13365   -2.851017 H        1 UNL1     0.0359
     70 H         -2.457037   -0.563117   -2.130677 H        1 UNL1     0.0600
     71 H         -1.896971   -0.868705   -0.057598 H        1 UNL1     0.0348
     72 H         -3.822675   0.570342   0.333365 H        1 UNL1     0.0602
     73 H         -2.465744   5.149581   -1.254291 H        1 UNL1     0.0628
     74 H         -4.567929   3.642837   -2.918973 H        1 UNL1     0.1022
     75 H         -7.843921   2.559302   8.171965 H        1 UNL1     0.0279
     76 H         -7.234901   4.104349   8.613807 H        1 UNL1     0.0279
     77 H         -8.991493   3.829413   8.276032 H        1 UNL1     0.0279
     78 H         -6.371553   5.818436   7.378706 H        1 UNL1     0.1553
     79 H         -4.988791   4.527074   6.789997 H        1 UNL1     0.1484
     80 H         -1.783458   4.528028   4.749082 H        1 UNL1     0.0317
     81 H         -2.711091   5.987902   5.062437 H        1 UNL1     0.0317
     82 H         -3.177338   5.256167   7.416345 H        1 UNL1     0.0428
     83 H         -1.466137   5.343525   7.061571 H        1 UNL1     0.0428
     84 H         -3.236934   1.476117   6.95873 H        1 UNL1     0.0428
     85 H         -4.281035   2.788241   7.379807 H        1 UNL1     0.0428
     86 H         -4.376067   1.979523   5.021461 H        1 UNL1     0.0317
     87 H         -2.73797   2.342623   4.726252 H        1 UNL1     0.0317
     88 H         -2.213371   2.260444   8.894423 H        1 UNL1     0.0429
     89 H         -0.640245   2.924035   8.445918 H        1 UNL1     0.0429
     90 H         -2.334368   5.193688   8.772158 H        1 UNL1     0.0308
     91 H         -3.994019   4.658602   10.249521 H        1 UNL1     0.0233
     92 H         -3.411665   2.976592   10.334377 H        1 UNL1     0.0233
     93 H         -2.789537   4.182399   11.440536 H        1 UNL1     0.0233
     94 H         -0.914262   5.725721   10.636381 H        1 UNL1     0.0233
     95 H         -0.396369   4.039126   10.783061 H        1 UNL1     0.0233
     96 H         0.066272   4.989242   9.352245 H        1 UNL1     0.0233
     97 H         -7.363327   10.316557   0.364124 H        1 UNL1     0.0280
     98 H         -6.910757   9.227766   -0.919193 H        1 UNL1     0.0280
     99 H         -8.569823   9.172575   -0.252722 H        1 UNL1     0.0280
     100 H         -7.664853   10.262711   2.882325 H        1 UNL1     0.2922
     101 H         -5.158104   -0.983725   1.047532 H        1 UNL1     0.0236
     102 H         -6.362193   0.218178   0.437893 H        1 UNL1     0.0236
     103 H         -6.542914   -0.533587   1.992784 H        1 UNL1     0.0236
     104 H         -3.350393   -1.396588   1.279811 H        1 UNL1     0.2098
     105 H         -0.401535   1.686489   -0.072899 H        1 UNL1     0.0234
     106 H         -0.53577   0.727539   1.428265 H        1 UNL1     0.0234
     107 H         0.0   0.0   0.0 H        1 UNL1     0.0234
     108 H         -4.060114   0.633336   -2.243902 H        1 UNL1     0.2098
     109 H         -0.087848   4.548559   -0.107757 H        1 UNL1     0.0234
     110 H         -1.702394   3.770256   -0.124752 H        1 UNL1     0.0234
     111 H         -0.282996   2.832848   0.184148 H        1 UNL1     0.0234
     112 H         4.438618   0.602931   -2.689501 H        1 UNL1     0.0342
     113 H         4.105126   1.221562   -1.032903 H        1 UNL1     0.0342
     114 H         3.199019   -0.152442   -1.672476 H        1 UNL1     0.0342
     115 H         -1.509866   1.877379   -4.711117 H        1 UNL1     0.0234
     116 H         -0.461639   0.4901   -5.02331 H        1 UNL1     0.0234
     117 H         -2.191167   0.319683   -4.658155 H        1 UNL1     0.0234
     118 H         -3.28926   7.205442   -1.624382 H        1 UNL1     0.0309
     119 H         -3.737255   7.828624   -0.006048 H        1 UNL1     0.0309
     120 H         -2.76623   6.385716   -0.199145 H        1 UNL1     0.0309
     121 H         -0.539541   3.453866   -4.995764 H        1 UNL1     0.0524
     122 H         -0.614666   1.84432   -4.26736 H        1 UNL1     0.0524
     123 H         -1.706799   2.253973   -5.613901 H        1 UNL1     0.0524
@<TRIPOS>BOND
     1     1     2    1
     2     1    42    1
     3     2     3    2
     4     3     4    1
     5     4     5    2
     6     5     7    1
     7     6    75    1
     8     6    76    1
     9     6    77    1
    10     7     9   am
    11     9    10    1
    12    10    11    2
    13    10    43    1
    14    11    14    1
    15    11    15    1
    16    12    13   ar
    17    12    27   ar
    18    12    43    1
    19    13    14    1
    20    13    30   ar
    21    14    17    2
    22    15    16    1
    23    16    17    1
    24    16    18    1
    25    16    22    1
    26    18    19    1
    27    19    20    1
    28    20    21    1
    29    21    22    1
    30    23    24    1
    31    23    88    1
    32    23    89    1
    33    24    25    1
    34    24    26    1
    35    24    90    1
    36    25    91    1
    37    25    92    1
    38    25    93    1
    39    26    94    1
    40    26    95    1
    41    26    96    1
    42    27    28   ar
    43    28    29   ar
    44    29    30   ar
    45    29    31    1
    46    30    33    1
    47    31    32    1
    48    32    33    1
    49    32    35    1
    50    34    97    1
    51    34    98    1
    52    34    99    1
    53    35    61    1
    54    36    37    1
    55    36    60    1
    56    37    38    1
    57    38    39    1
    58    39    40    1
    59    40    41    1
    60    41    42    1
    61    45   100    1
    62    47   101    1
    63    47   102    1
    64    47   103    1
    65    48   104    1
    66    49   105    1
    67    49   106    1
    68    49   107    1
    69    50   108    1
    70    51    59    1
    71    52   109    1
    72    52   110    1
    73    52   111    1
    74    53    54    1
    75    54    55    2
    76    54    56    1
    77    56   112    1
    78    56   113    1
    79    56   114    1
    80    57   115    1
    81    57   116    1
    82    57   117    1
    83    58   118    1
    84    58   119    1
    85    58   120    1
    86    59   121    1
    87    59   122    1
    88    59   123    1
    89    60    61    2
    90     1    47    1
    91     1    62    1
    92     2    63    1
    93     3    64    1
    94     4    65    1
    95     5     6    1
    96     7     8    2
    97     9    78    1
    98    15    79    1
    99    18    80    1
   100    18    81    1
   101    19    82    1
   102    19    83    1
   103    20    23    1
   104    21    84    1
   105    21    85    1
   106    22    86    1
   107    22    87    1
   108    27    45    1
   109    28    34    1
   110    32    58    1
   111    33    46    2
   112    36    51    1
   113    36    66    1
   114    37    52    1
   115    37    67    1
   116    38    53    1
   117    38    68    1
   118    42    48    1
   119    42    72    1
   120    43    44    2
   121    60    73    1
   122    61    74    1
   123    39    69    1
   124    39    57    1
   125    40    70    1
   126    40    50    1
   127    41    71    1
   128    41    49    1
