@<TRIPOS>MOLECULE
*****
 123 128 0 0 0
SMALL
GASTEIGER

@<TRIPOS>ATOM
     1 C         5.122705   1.839155   0.612361 C.3        1 UNL1     0.0009
     2 C         6.561372   2.678653   -0.201592 C.2        1 UNL1     -0.0787
     3 C         7.858337   2.609658   -0.841254 C.2        1 UNL1     -0.0649
     4 C         8.728022   3.866968   -1.5687 C.2        1 UNL1     -0.0542
     5 C         9.761585   4.186134   -2.483555 C.2        1 UNL1     0.0115
     6 C         10.918891   3.588796   -3.330404 C.3        1 UNL1     -0.0348
     7 C         9.841757   5.675843   -3.076283 C.2        1 UNL1     0.2441
     8 O         10.642198   6.509438   -2.67511 O.2        1 UNL1     -0.2702
     9 N         9.11215   5.878544   -4.260655 N.am        1 UNL1     -0.2772
     10 C         7.81624   6.238857   -3.970631 C.2        1 UNL1     0.1049
     11 C         6.982865   5.249608   -3.703993 C.2        1 UNL1     0.0801
     12 C         6.459249   7.809567   -2.574645 C.ar        1 UNL1     0.0753
     13 C         5.712273   6.66417   -2.151914 C.ar        1 UNL1     0.0305
     14 C         5.866839   5.366212   -2.804957 C.2        1 UNL1     0.0924
     15 N         7.133506   3.924478   -3.870924 N.pl3        1 UNL1     -0.3170
     16 C         5.868821   3.299376   -3.58795 C.3        1 UNL1     0.1275
     17 N         5.194612   4.234585   -2.614014 N.2        1 UNL1     -0.2557
     18 C         5.041305   3.35308   -4.868589 C.3        1 UNL1     0.0016
     19 C         5.831964   2.692371   -5.986584 C.3        1 UNL1     0.0026
     20 N         6.119728   1.316367   -5.606017 N.3        1 UNL1     -0.3018
     21 C         6.86018   1.159907   -4.352374 C.3        1 UNL1     0.0026
     22 C         6.045703   1.826664   -3.242438 C.3        1 UNL1     0.0016
     23 C         6.602268   0.514349   -6.712618 C.3        1 UNL1     0.0012
     24 C         5.47112   0.247981   -7.718257 C.3        1 UNL1     -0.0339
     25 C         5.492385   1.265216   -8.871008 C.3        1 UNL1     -0.0615
     26 C         5.555198   -1.179322   -8.23062 C.3        1 UNL1     -0.0615
     27 C         6.219882   9.068776   -2.029471 C.ar        1 UNL1     0.1347
     28 C         5.236339   9.312642   -1.087547 C.ar        1 UNL1     0.0342
     29 C         4.546692   8.161668   -0.650728 C.ar        1 UNL1     0.1435
     30 C         4.800396   6.88812   -1.16154 C.ar        1 UNL1     0.0774
     31 O         3.486357   8.248948   0.181786 O.3        1 UNL1     -0.4436
     32 C         2.790883   7.004214   0.014974 C.3        1 UNL1     0.3143
     33 C         3.833297   6.034418   -0.503757 C.2        1 UNL1     0.2504
     34 C         4.755098   10.666582   -0.645557 C.3        1 UNL1     -0.0327
     35 O         2.411345   6.550106   1.31996 O.2        1 UNL1     -0.4528
     36 C         -0.786223   4.561648   0.840708 C.3        1 UNL1     0.0854
     37 C         -1.049374   3.303064   -0.072659 C.3        1 UNL1     0.0236
     38 C         -1.642454   2.024697   0.692702 C.3        1 UNL1     0.1131
     39 C         -0.933951   1.496576   2.004716 C.3        1 UNL1     0.0200
     40 C         0.728462   1.381421   2.079284 C.3        1 UNL1     0.0661
     41 C         1.725931   0.640092   0.924686 C.3        1 UNL1     0.0091
     42 C         3.437743   1.03877   0.399179 C.3        1 UNL1     0.0661
     43 C         7.435943   7.628685   -3.677192 C.2        1 UNL1     0.2131
     44 O         7.833763   8.539878   -4.380187 O.2        1 UNL1     -0.2851
     45 O         7.022001   10.122453   -2.46284 O.3        1 UNL1     -0.5056
     46 O         3.869021   4.83035   -0.382114 O.2        1 UNL1     -0.2836
     47 C         5.497226   1.405264   2.055085 C.3        1 UNL1     -0.0566
     48 O         3.910755   -0.36443   0.479214 O.3        1 UNL1     -0.3909
     49 C         0.922006   0.40233   -0.33415 C.3        1 UNL1     -0.0577
     50 O         1.29761   2.606896   2.494019 O.3        1 UNL1     -0.3910
     51 O         -0.935456   4.358281   2.22772 O.3        1 UNL1     -0.3753
     52 C         0.021465   3.1714   -1.204435 C.3        1 UNL1     -0.0564
     53 O         -2.206873   0.982187   -0.227587 O.3        1 UNL1     -0.4608
     54 C         -2.411593   -0.334399   0.092756 C.2        1 UNL1     0.3042
     55 O         -1.811887   -1.312931   -0.350716 O.2        1 UNL1     -0.2512
     56 C         -3.459538   -0.540366   1.149213 C.3        1 UNL1     0.0332
     57 C         -1.693213   2.141743   3.255898 C.3        1 UNL1     -0.0567
     58 C         1.733918   7.238298   -1.089363 C.3        1 UNL1     0.0210
     59 C         -1.324159   5.516424   2.964931 C.3        1 UNL1     0.0372
     60 C         0.535291   5.217056   0.642712 C.2        1 UNL1     -0.0208
     61 C         1.42181   5.661924   1.534296 C.2        1 UNL1     0.0882
     62 H         4.626819   2.813615   0.69742 H        1 UNL1     0.0365
     63 H         6.273407   3.726452   -0.093596 H        1 UNL1     0.0576
     64 H         8.338403   1.653279   -1.060303 H        1 UNL1     0.0615
     65 H         8.216902   4.770328   -1.224926 H        1 UNL1     0.0622
     66 H         -1.538099   5.296814   0.520925 H        1 UNL1     0.0645
     67 H         -1.907736   3.601396   -0.699375 H        1 UNL1     0.0362
     68 H         -2.604563   2.441095   1.028083 H        1 UNL1     0.0741
     69 H         -1.25053   0.477954   2.18526 H        1 UNL1     0.0359
     70 H         0.834314   0.716052   2.95743 H        1 UNL1     0.0600
     71 H         1.779721   -0.383566   1.344433 H        1 UNL1     0.0348
     72 H         3.302579   1.516872   1.380232 H        1 UNL1     0.0602
     73 H         0.670859   5.424957   -0.38959 H        1 UNL1     0.0628
     74 H         1.386116   5.442192   2.601854 H        1 UNL1     0.1022
     75 H         10.980801   2.483308   -3.185152 H        1 UNL1     0.0279
     76 H         10.826021   3.678326   -4.410417 H        1 UNL1     0.0279
     77 H         11.911155   3.909325   -2.980585 H        1 UNL1     0.0279
     78 H         9.077223   5.011937   -4.793431 H        1 UNL1     0.1553
     79 H         7.81924   3.513936   -4.477683 H        1 UNL1     0.1484
     80 H         4.085541   2.842892   -4.698328 H        1 UNL1     0.0317
     81 H         4.801051   4.387659   -5.136122 H        1 UNL1     0.0317
     82 H         6.757481   3.242795   -6.211004 H        1 UNL1     0.0428
     83 H         5.224431   2.743275   -6.890665 H        1 UNL1     0.0428
     84 H         6.993514   0.116853   -4.048942 H        1 UNL1     0.0428
     85 H         7.885156   1.547749   -4.431873 H        1 UNL1     0.0428
     86 H         6.547852   1.578438   -2.325803 H        1 UNL1     0.0317
     87 H         5.072959   1.330002   -3.141477 H        1 UNL1     0.0317
     88 H         7.39663   1.076416   -7.220914 H        1 UNL1     0.0429
     89 H         7.047884   -0.424719   -6.359981 H        1 UNL1     0.0429
     90 H         4.506563   0.324762   -7.202555 H        1 UNL1     0.0308
     91 H         6.451653   1.250246   -9.397016 H        1 UNL1     0.0233
     92 H         4.689727   1.05909   -9.58295 H        1 UNL1     0.0233
     93 H         5.336193   2.293622   -8.523414 H        1 UNL1     0.0233
     94 H         4.877375   -1.316217   -9.08012 H        1 UNL1     0.0233
     95 H         6.571563   -1.394408   -8.572239 H        1 UNL1     0.0233
     96 H         5.284443   -1.899039   -7.453016 H        1 UNL1     0.0233
     97 H         3.947725   10.596083   0.077221 H        1 UNL1     0.0280
     98 H         5.547233   11.247678   -0.155552 H        1 UNL1     0.0280
     99 H         4.388994   11.231234   -1.518615 H        1 UNL1     0.0280
     100 H         6.547829   10.866672   -2.789828 H        1 UNL1     0.2922
     101 H         4.632406   0.951626   2.538774 H        1 UNL1     0.0236
     102 H         5.92087   2.214023   2.649576 H        1 UNL1     0.0236
     103 H         6.26817   0.616741   2.063428 H        1 UNL1     0.0236
     104 H         4.314447   -0.489809   1.360283 H        1 UNL1     0.2098
     105 H         0.705158   1.301658   -0.905112 H        1 UNL1     0.0234
     106 H         1.319067   -0.373843   -0.988233 H        1 UNL1     0.0234
     107 H         0.0   -0.0   0.0 H        1 UNL1     0.0234
     108 H         1.098744   3.267711   1.802973 H        1 UNL1     0.2098
     109 H         1.040173   3.073766   -0.803919 H        1 UNL1     0.0234
     110 H         -0.181445   2.345748   -1.894992 H        1 UNL1     0.0234
     111 H         0.039661   4.05978   -1.849723 H        1 UNL1     0.0234
     112 H         -3.569602   -1.608244   1.361034 H        1 UNL1     0.0342
     113 H         -3.239934   0.01765   2.058187 H        1 UNL1     0.0342
     114 H         -4.418434   -0.174186   0.757301 H        1 UNL1     0.0342
     115 H         -2.75303   1.853281   3.283583 H        1 UNL1     0.0234
     116 H         -1.256785   1.881728   4.22232 H        1 UNL1     0.0234
     117 H         -1.772928   3.24119   3.202955 H        1 UNL1     0.0234
     118 H         0.815606   7.705071   -0.692083 H        1 UNL1     0.0309
     119 H         2.109644   7.839927   -1.923074 H        1 UNL1     0.0309
     120 H         1.371643   6.302834   -1.529557 H        1 UNL1     0.0309
     121 H         -0.536741   6.260665   2.849021 H        1 UNL1     0.0524
     122 H         -2.259121   5.960315   2.584348 H        1 UNL1     0.0524
     123 H         -1.453515   5.26795   4.014512 H        1 UNL1     0.0524
@<TRIPOS>BOND
     1     1     2    1
     2     1    42    1
     3     2     3    2
     4     3     4    1
     5     4     5    2
     6     5     7    1
     7     6    75    1
     8     6    76    1
     9     6    77    1
    10     7     9   am
    11     9    10    1
    12    10    11    2
    13    10    43    1
    14    11    14    1
    15    11    15    1
    16    12    13   ar
    17    12    27   ar
    18    12    43    1
    19    13    14    1
    20    13    30   ar
    21    14    17    2
    22    15    16    1
    23    16    17    1
    24    16    18    1
    25    16    22    1
    26    18    19    1
    27    19    20    1
    28    20    21    1
    29    21    22    1
    30    23    24    1
    31    23    88    1
    32    23    89    1
    33    24    25    1
    34    24    26    1
    35    24    90    1
    36    25    91    1
    37    25    92    1
    38    25    93    1
    39    26    94    1
    40    26    95    1
    41    26    96    1
    42    27    28   ar
    43    28    29   ar
    44    29    30   ar
    45    29    31    1
    46    30    33    1
    47    31    32    1
    48    32    33    1
    49    32    35    1
    50    34    97    1
    51    34    98    1
    52    34    99    1
    53    35    61    1
    54    36    37    1
    55    36    60    1
    56    37    38    1
    57    38    39    1
    58    39    40    1
    59    40    41    1
    60    41    42    1
    61    45   100    1
    62    47   101    1
    63    47   102    1
    64    47   103    1
    65    48   104    1
    66    49   105    1
    67    49   106    1
    68    49   107    1
    69    50   108    1
    70    51    59    1
    71    52   109    1
    72    52   110    1
    73    52   111    1
    74    53    54    1
    75    54    55    2
    76    54    56    1
    77    56   112    1
    78    56   113    1
    79    56   114    1
    80    57   115    1
    81    57   116    1
    82    57   117    1
    83    58   118    1
    84    58   119    1
    85    58   120    1
    86    59   121    1
    87    59   122    1
    88    59   123    1
    89    60    61    2
    90     1    47    1
    91     1    62    1
    92     2    63    1
    93     3    64    1
    94     4    65    1
    95     5     6    1
    96     7     8    2
    97     9    78    1
    98    15    79    1
    99    18    80    1
   100    18    81    1
   101    19    82    1
   102    19    83    1
   103    20    23    1
   104    21    84    1
   105    21    85    1
   106    22    86    1
   107    22    87    1
   108    27    45    1
   109    28    34    1
   110    32    58    1
   111    33    46    2
   112    36    51    1
   113    36    66    1
   114    37    52    1
   115    37    67    1
   116    38    53    1
   117    38    68    1
   118    42    48    1
   119    42    72    1
   120    43    44    2
   121    60    73    1
   122    61    74    1
   123    39    69    1
   124    39    57    1
   125    40    70    1
   126    40    50    1
   127    41    71    1
   128    41    49    1
