@<TRIPOS>MOLECULE
*****
 123 128 0 0 0
SMALL
GASTEIGER

@<TRIPOS>ATOM
     1 C         1.448202   -3.434188   -1.872077 C.3        1 UNL1     0.0009
     2 C         2.875167   -4.489341   -1.335923 C.2        1 UNL1     -0.0787
     3 C         4.257353   -4.897333   -1.474301 C.2        1 UNL1     -0.0649
     4 C         5.130746   -5.96423   -0.491818 C.2        1 UNL1     -0.0542
     5 C         6.425098   -6.38029   -0.09354 C.2        1 UNL1     0.0115
     6 C         7.94034   -6.247555   -0.409368 C.3        1 UNL1     -0.0348
     7 C         6.586877   -7.224325   1.262344 C.2        1 UNL1     0.2441
     8 O         6.754376   -8.436054   1.275886 O.2        1 UNL1     -0.2702
     9 N         6.784729   -6.449424   2.41843 N.am        1 UNL1     -0.2772
     10 C         5.575798   -6.098171   2.973794 C.2        1 UNL1     0.1049
     11 C         4.978432   -5.043841   2.448663 C.2        1 UNL1     0.0801
     12 C         3.370819   -7.041349   3.685001 C.ar        1 UNL1     0.0753
     13 C         2.76484   -5.992187   2.922992 C.ar        1 UNL1     0.0305
     14 C         3.550943   -4.882478   2.388541 C.2        1 UNL1     0.0924
     15 N         5.449956   -4.120861   1.592916 N.pl3        1 UNL1     -0.3170
     16 C         4.456032   -3.087865   1.469264 C.3        1 UNL1     0.1275
     17 N         3.148307   -3.78591   1.752656 N.2        1 UNL1     -0.2557
     18 C         4.67311   -2.111304   2.621179 C.3        1 UNL1     0.0016
     19 C         6.107997   -1.611146   2.570886 C.3        1 UNL1     0.0026
     20 N         6.332981   -0.963888   1.285791 N.3        1 UNL1     -0.3018
     21 C         6.089138   -1.807234   0.113752 C.3        1 UNL1     0.0026
     22 C         4.640868   -2.294798   0.182241 C.3        1 UNL1     0.0016
     23 C         7.561138   -0.19518   1.24888 C.3        1 UNL1     0.0012
     24 C         8.740187   -1.038932   1.758471 C.3        1 UNL1     -0.0339
     25 C         8.392231   -2.536436   1.780006 C.3        1 UNL1     -0.0615
     26 C         9.977276   -0.764472   0.921176 C.3        1 UNL1     -0.0615
     27 C         2.60015   -8.029718   4.292712 C.ar        1 UNL1     0.1347
     28 C         1.217746   -8.051278   4.242249 C.ar        1 UNL1     0.0342
     29 C         0.64573   -7.036504   3.445886 C.ar        1 UNL1     0.1435
     30 C         1.407255   -6.060791   2.801459 C.ar        1 UNL1     0.0774
     31 O         -0.691934   -6.857309   3.386302 O.3        1 UNL1     -0.4436
     32 C         -0.856916   -5.51454   2.906069 C.3        1 UNL1     0.3143
     33 C         0.430968   -5.194387   2.174584 C.2        1 UNL1     0.2504
     34 C         0.318753   -8.926148   5.07081 C.3        1 UNL1     -0.0327
     35 O         -1.899778   -5.538609   1.923668 O.2        1 UNL1     -0.4528
     36 C         -3.55638   -2.127   2.080766 C.3        1 UNL1     0.0854
     37 C         -2.914723   -0.698333   1.894463 C.3        1 UNL1     0.0236
     38 C         -3.605768   0.211388   0.769025 C.3        1 UNL1     0.1131
     39 C         -3.8404   -0.376329   -0.680735 C.3        1 UNL1     0.0200
     40 C         -2.64672   -1.263389   -1.436176 C.3        1 UNL1     0.0661
     41 C         -1.020815   -0.807095   -1.596914 C.3        1 UNL1     0.0091
     42 C         0.502518   -1.828133   -1.645295 C.3        1 UNL1     0.0661
     43 C         4.840911   -6.991662   3.881522 C.2        1 UNL1     0.2131
     44 O         5.417823   -7.558634   4.791715 O.2        1 UNL1     -0.2851
     45 O         3.270994   -9.040579   4.977962 O.3        1 UNL1     -0.5056
     46 O         0.606992   -4.415774   1.264292 O.2        1 UNL1     -0.2836
     47 C         0.865264   -3.956311   -3.212805 C.3        1 UNL1     -0.0566
     48 O         1.064566   -1.137336   -2.831051 O.3        1 UNL1     -0.3909
     49 C         -0.745176   0.352798   -0.666233 C.3        1 UNL1     -0.0577
     50 O         -2.732415   -2.62754   -1.076352 O.3        1 UNL1     -0.3910
     51 O         -4.53135   -2.49311   1.130593 O.3        1 UNL1     -0.3753
     52 C         -1.365831   -0.723945   2.107129 C.3        1 UNL1     -0.0564
     53 O         -3.221873   1.660052   0.848539 O.3        1 UNL1     -0.4608
     54 C         -4.097395   2.711911   0.919132 C.2        1 UNL1     0.3042
     55 O         -3.835723   3.909686   0.815684 O.2        1 UNL1     -0.2512
     56 C         -5.52985   2.29181   1.087366 C.3        1 UNL1     0.0332
     57 C         -5.336098   -0.94022   -0.736302 C.3        1 UNL1     -0.0567
     58 C         -0.957519   -4.611669   4.157561 C.3        1 UNL1     0.0210
     59 C         -4.010634   -2.965532   -0.110993 C.3        1 UNL1     0.0372
     60 C         -2.581897   -3.24981   2.150337 C.2        1 UNL1     -0.0208
     61 C         -2.596918   -4.445329   1.55936 C.2        1 UNL1     0.0882
     62 H         0.843322   -3.879831   -1.073182 H        1 UNL1     0.0365
     63 H         2.394016   -5.113758   -0.580233 H        1 UNL1     0.0576
     64 H         4.93452   -4.398183   -2.171009 H        1 UNL1     0.0615
     65 H         4.35957   -6.461826   0.102462 H        1 UNL1     0.0622
     66 H         -4.03976   -2.086   3.067026 H        1 UNL1     0.0645
     67 H         -3.193089   -0.157247   2.815494 H        1 UNL1     0.0362
     68 H         -4.609893   0.315545   1.207667 H        1 UNL1     0.0741
     69 H         -3.996677   0.444489   -1.367935 H        1 UNL1     0.0359
     70 H         -3.014829   -1.228855   -2.479423 H        1 UNL1     0.0600
     71 H         -1.060169   -0.293782   -2.577689 H        1 UNL1     0.0348
     72 H         -0.327163   -2.509889   -1.882263 H        1 UNL1     0.0602
     73 H         -1.849036   -3.031083   2.886762 H        1 UNL1     0.0628
     74 H         -3.277193   -4.727054   0.754938 H        1 UNL1     0.1022
     75 H         8.093103   -5.731333   -1.38774 H        1 UNL1     0.0279
     76 H         8.526218   -5.63532   0.272529 H        1 UNL1     0.0279
     77 H         8.421869   -7.21809   -0.59882 H        1 UNL1     0.0279
     78 H         7.27126   -5.589263   2.174525 H        1 UNL1     0.1553
     79 H         6.426975   -3.957266   1.43291 H        1 UNL1     0.1484
     80 H         3.957572   -1.285275   2.529269 H        1 UNL1     0.0317
     81 H         4.474284   -2.592465   3.584819 H        1 UNL1     0.0317
     82 H         6.828978   -2.425377   2.735585 H        1 UNL1     0.0428
     83 H         6.241639   -0.917763   3.401796 H        1 UNL1     0.0428
     84 H         6.187686   -1.275223   -0.837597 H        1 UNL1     0.0428
     85 H         6.8196   -2.624662   0.039228 H        1 UNL1     0.0428
     86 H         4.459224   -2.794755   -0.751052 H        1 UNL1     0.0317
     87 H         3.955465   -1.439089   0.149363 H        1 UNL1     0.0317
     88 H         7.757228   0.085382   0.205746 H        1 UNL1     0.0429
     89 H         7.465324   0.737173   1.820118 H        1 UNL1     0.0429
     90 H         8.992754   -0.724437   2.778038 H        1 UNL1     0.0308
     91 H         9.251077   -3.13992   2.088702 H        1 UNL1     0.0233
     92 H         7.556618   -2.729164   2.456923 H        1 UNL1     0.0233
     93 H         8.080335   -2.906907   0.79598 H        1 UNL1     0.0233
     94 H         10.283498   -1.672636   0.390797 H        1 UNL1     0.0233
     95 H         9.760177   0.004808   0.174826 H        1 UNL1     0.0233
     96 H         10.812676   -0.42842   1.541775 H        1 UNL1     0.0233
     97 H         0.804131   -9.854644   5.356352 H        1 UNL1     0.0280
     98 H         0.020702   -8.441699   6.009815 H        1 UNL1     0.0280
     99 H         -0.588377   -9.173187   4.495326 H        1 UNL1     0.0280
     100 H         3.988585   -9.424406   4.50535 H        1 UNL1     0.2922
     101 H         1.53324   -3.691385   -4.032121 H        1 UNL1     0.0236
     102 H         -0.156353   -3.624132   -3.3943 H        1 UNL1     0.0236
     103 H         0.811771   -5.057483   -3.240233 H        1 UNL1     0.0236
     104 H         2.025419   -1.035296   -2.685038 H        1 UNL1     0.2098
     105 H         -0.357733   1.24129   -1.158453 H        1 UNL1     0.0234
     106 H         -1.573755   0.616051   -0.008904 H        1 UNL1     0.0234
     107 H         0.0   0.0   0.0 H        1 UNL1     0.0234
     108 H         -3.20148   -3.089001   -1.798017 H        1 UNL1     0.2098
     109 H         -1.039652   -0.009675   2.875983 H        1 UNL1     0.0234
     110 H         -0.980666   -1.721036   2.346297 H        1 UNL1     0.0234
     111 H         -0.827024   -0.442774   1.192484 H        1 UNL1     0.0234
     112 H         -5.971325   2.074922   0.109918 H        1 UNL1     0.0342
     113 H         -5.630849   1.440771   1.759211 H        1 UNL1     0.0342
     114 H         -6.084177   3.131684   1.528387 H        1 UNL1     0.0342
     115 H         -5.785373   -0.808981   -1.730342 H        1 UNL1     0.0234
     116 H         -5.422354   -1.996497   -0.473835 H        1 UNL1     0.0234
     117 H         -6.043434   -0.373898   -0.106304 H        1 UNL1     0.0234
     118 H         -1.920645   -4.73674   4.682683 H        1 UNL1     0.0309
     119 H         -0.139401   -4.768858   4.867615 H        1 UNL1     0.0309
     120 H         -0.942237   -3.54494   3.908639 H        1 UNL1     0.0309
     121 H         -4.329733   -2.271273   -0.88787 H        1 UNL1     0.0524
     122 H         -2.908204   -2.99005   -0.1201 H        1 UNL1     0.0524
     123 H         -4.387226   -3.962505   -0.321514 H        1 UNL1     0.0524
@<TRIPOS>BOND
     1     1     2    1
     2     1    42    1
     3     2     3    2
     4     3     4    1
     5     4     5    2
     6     5     7    1
     7     6    75    1
     8     6    76    1
     9     6    77    1
    10     7     9   am
    11     9    10    1
    12    10    11    2
    13    10    43    1
    14    11    14    1
    15    11    15    1
    16    12    13   ar
    17    12    27   ar
    18    12    43    1
    19    13    14    1
    20    13    30   ar
    21    14    17    2
    22    15    16    1
    23    16    17    1
    24    16    18    1
    25    16    22    1
    26    18    19    1
    27    19    20    1
    28    20    21    1
    29    21    22    1
    30    23    24    1
    31    23    88    1
    32    23    89    1
    33    24    25    1
    34    24    26    1
    35    24    90    1
    36    25    91    1
    37    25    92    1
    38    25    93    1
    39    26    94    1
    40    26    95    1
    41    26    96    1
    42    27    28   ar
    43    28    29   ar
    44    29    30   ar
    45    29    31    1
    46    30    33    1
    47    31    32    1
    48    32    33    1
    49    32    35    1
    50    34    97    1
    51    34    98    1
    52    34    99    1
    53    35    61    1
    54    36    37    1
    55    36    60    1
    56    37    38    1
    57    38    39    1
    58    39    40    1
    59    40    41    1
    60    41    42    1
    61    45   100    1
    62    47   101    1
    63    47   102    1
    64    47   103    1
    65    48   104    1
    66    49   105    1
    67    49   106    1
    68    49   107    1
    69    50   108    1
    70    51    59    1
    71    52   109    1
    72    52   110    1
    73    52   111    1
    74    53    54    1
    75    54    55    2
    76    54    56    1
    77    56   112    1
    78    56   113    1
    79    56   114    1
    80    57   115    1
    81    57   116    1
    82    57   117    1
    83    58   118    1
    84    58   119    1
    85    58   120    1
    86    59   121    1
    87    59   122    1
    88    59   123    1
    89    60    61    2
    90     1    47    1
    91     1    62    1
    92     2    63    1
    93     3    64    1
    94     4    65    1
    95     5     6    1
    96     7     8    2
    97     9    78    1
    98    15    79    1
    99    18    80    1
   100    18    81    1
   101    19    82    1
   102    19    83    1
   103    20    23    1
   104    21    84    1
   105    21    85    1
   106    22    86    1
   107    22    87    1
   108    27    45    1
   109    28    34    1
   110    32    58    1
   111    33    46    2
   112    36    51    1
   113    36    66    1
   114    37    52    1
   115    37    67    1
   116    38    53    1
   117    38    68    1
   118    42    48    1
   119    42    72    1
   120    43    44    2
   121    60    73    1
   122    61    74    1
   123    39    69    1
   124    39    57    1
   125    40    70    1
   126    40    50    1
   127    41    71    1
   128    41    49    1
