@<TRIPOS>MOLECULE
*****
 123 128 0 0 0
SMALL
GASTEIGER

@<TRIPOS>ATOM
     1 C         -4.502276   0.62152   -1.770864 C.3        1 UNL1     0.0009
     2 C         -6.223226   -0.023468   -1.527222 C.2        1 UNL1     -0.0787
     3 C         -7.229574   -1.037432   -1.762138 C.2        1 UNL1     -0.0649
     4 C         -8.782032   -1.137182   -1.094095 C.2        1 UNL1     -0.0542
     5 C         -9.872512   -1.997186   -0.814231 C.2        1 UNL1     0.0115
     6 C         -10.455486   -3.413167   -1.075886 C.3        1 UNL1     -0.0348
     7 C         -10.964749   -1.539328   0.269455 C.2        1 UNL1     0.2441
     8 O         -12.061497   -1.093491   -0.038603 O.2        1 UNL1     -0.2702
     9 N         -10.681665   -1.926553   1.590845 N.am        1 UNL1     -0.2772
     10 C         -9.904675   -0.976892   2.213542 C.2        1 UNL1     0.1049
     11 C         -8.605846   -1.046019   1.984442 C.2        1 UNL1     0.0801
     12 C         -9.738018   1.48273   2.637594 C.ar        1 UNL1     0.0753
     13 C         -8.385396   1.390782   2.178717 C.ar        1 UNL1     0.0305
     14 C         -7.736966   0.099377   1.962242 C.2        1 UNL1     0.0924
     15 N         -7.881157   -2.019654   1.407043 N.pl3        1 UNL1     -0.3170
     16 C         -6.490936   -1.680612   1.557344 C.3        1 UNL1     0.1275
     17 N         -6.476168   -0.173658   1.638564 N.2        1 UNL1     -0.2557
     18 C         -6.048679   -2.182954   2.928388 C.3        1 UNL1     0.0016
     19 C         -6.345347   -3.671307   3.019942 C.3        1 UNL1     0.0026
     20 N         -5.628352   -4.35762   1.954146 N.3        1 UNL1     -0.3018
     21 C         -5.941589   -3.899662   0.598961 C.3        1 UNL1     0.0026
     22 C         -5.631804   -2.403359   0.528229 C.3        1 UNL1     0.0016
     23 C         -5.600021   -5.796124   2.128922 C.3        1 UNL1     0.0012
     24 C         -6.207914   -6.185958   3.485481 C.3        1 UNL1     -0.0339
     25 C         -5.591123   -5.369983   4.633441 C.3        1 UNL1     -0.0615
     26 C         -7.718635   -6.035689   3.441662 C.3        1 UNL1     -0.0615
     27 C         -10.309818   2.712013   2.957011 C.ar        1 UNL1     0.1347
     28 C         -9.618229   3.908675   2.895745 C.ar        1 UNL1     0.0342
     29 C         -8.3036   3.799364   2.394783 C.ar        1 UNL1     0.1435
     30 C         -7.729392   2.579043   2.036561 C.ar        1 UNL1     0.0774
     31 O         -7.465352   4.858644   2.378286 O.3        1 UNL1     -0.4436
     32 C         -6.154854   4.282437   2.271261 C.3        1 UNL1     0.3143
     33 C         -6.372626   2.914169   1.657557 C.2        1 UNL1     0.2504
     34 C         -10.08082   5.224138   3.457589 C.3        1 UNL1     -0.0327
     35 O         -5.42536   5.05835   1.312591 O.2        1 UNL1     -0.4528
     36 C         -1.783362   4.852907   2.362225 C.3        1 UNL1     0.0854
     37 C         -0.875365   3.579414   2.565404 C.3        1 UNL1     0.0236
     38 C         0.486555   3.578345   1.718695 C.3        1 UNL1     0.1131
     39 C         0.444562   3.865779   0.163739 C.3        1 UNL1     0.0200
     40 C         -0.725534   3.161847   -0.794277 C.3        1 UNL1     0.0661
     41 C         -1.130131   1.514651   -0.819899 C.3        1 UNL1     0.0091
     42 C         -2.738703   0.689065   -1.130232 C.3        1 UNL1     0.0661
     43 C         -10.483606   0.216923   2.847576 C.2        1 UNL1     0.2131
     44 O         -11.453621   0.120257   3.577277 O.2        1 UNL1     -0.2851
     45 O         -11.645883   2.718754   3.352388 O.3        1 UNL1     -0.5056
     46 O         -5.606564   2.258158   0.987744 O.2        1 UNL1     -0.2836
     47 C         -4.338495   1.192805   -3.205015 C.3        1 UNL1     -0.0566
     48 O         -2.178203   -0.29558   -2.087013 O.3        1 UNL1     -0.3909
     49 C         -0.514575   0.842119   0.386868 C.3        1 UNL1     -0.0577
     50 O         -1.899928   3.948147   -0.810262 O.3        1 UNL1     -0.3910
     51 O         -1.380306   5.740807   1.344085 O.3        1 UNL1     -0.3753
     52 C         -1.727116   2.2844   2.771338 C.3        1 UNL1     -0.0564
     53 O         1.481055   2.554385   2.182162 O.3        1 UNL1     -0.4608
     54 C         2.827315   2.581335   1.92763 C.2        1 UNL1     0.3042
     55 O         3.622215   1.645989   2.011891 O.2        1 UNL1     -0.2512
     56 C         3.320981   3.914444   1.442008 C.3        1 UNL1     0.0332
     57 C         0.742883   5.422931   -0.047105 C.3        1 UNL1     -0.0567
     58 C         -5.636135   4.103854   3.717141 C.3        1 UNL1     0.0210
     59 C         -1.786304   7.095322   1.534663 C.3        1 UNL1     0.0372
     60 C         -3.22629   4.566786   2.135829 C.2        1 UNL1     -0.0208
     61 C         -4.080201   5.078666   1.248384 C.2        1 UNL1     0.0882
     62 H         -4.74921   1.470552   -1.122112 H        1 UNL1     0.0365
     63 H         -6.671716   0.799625   -0.967004 H        1 UNL1     0.0576
     64 H         -6.997771   -1.960709   -2.2978 H        1 UNL1     0.0615
     65 H         -8.941826   -0.147687   -0.657233 H        1 UNL1     0.0622
     66 H         -1.728904   5.386625   3.321509 H        1 UNL1     0.0645
     67 H         -0.49318   3.68427   3.595695 H        1 UNL1     0.0362
     68 H         0.980832   4.455104   2.164235 H        1 UNL1     0.0741
     69 H         1.362959   3.506941   -0.281446 H        1 UNL1     0.0359
     70 H         -0.27417   3.318491   -1.792673 H        1 UNL1     0.0600
     71 H         -0.460246   1.163643   -1.629222 H        1 UNL1     0.0348
     72 H         -2.833704   1.703523   -1.543952 H        1 UNL1     0.0602
     73 H         -3.581321   3.929871   2.907541 H        1 UNL1     0.0628
     74 H         -3.78876   5.691386   0.394643 H        1 UNL1     0.1022
     75 H         -11.323882   -3.356412   -1.775673 H        1 UNL1     0.0279
     76 H         -9.799375   -4.123519   -1.573868 H        1 UNL1     0.0279
     77 H         -10.924874   -3.851474   -0.18299 H        1 UNL1     0.0279
     78 H         -10.155698   -2.797999   1.586673 H        1 UNL1     0.1553
     79 H         -8.201994   -2.964523   1.301125 H        1 UNL1     0.1484
     80 H         -4.978596   -1.979276   3.055687 H        1 UNL1     0.0317
     81 H         -6.567624   -1.644354   3.728549 H        1 UNL1     0.0317
     82 H         -7.424869   -3.875345   2.965977 H        1 UNL1     0.0428
     83 H         -6.023942   -4.008497   4.005869 H        1 UNL1     0.0428
     84 H         -5.332449   -4.374708   -0.176339 H        1 UNL1     0.0428
     85 H         -6.974281   -4.14342   0.313573 H        1 UNL1     0.0428
     86 H         -5.744659   -2.132845   -0.505248 H        1 UNL1     0.0317
     87 H         -4.565617   -2.231941   0.720473 H        1 UNL1     0.0317
     88 H         -6.204367   -6.248956   1.332051 H        1 UNL1     0.0429
     89 H         -4.581186   -6.190635   2.023511 H        1 UNL1     0.0429
     90 H         -6.017997   -7.24964   3.671825 H        1 UNL1     0.0308
     91 H         -4.707474   -4.818164   4.299134 H        1 UNL1     0.0233
     92 H         -6.319995   -4.666246   5.042231 H        1 UNL1     0.0233
     93 H         -5.273219   -6.002179   5.471356 H        1 UNL1     0.0233
     94 H         -8.114445   -5.902145   4.454251 H        1 UNL1     0.0233
     95 H         -7.989504   -5.153561   2.85477 H        1 UNL1     0.0233
     96 H         -8.194374   -6.914686   2.997808 H        1 UNL1     0.0233
     97 H         -9.317934   5.992686   3.37653 H        1 UNL1     0.0280
     98 H         -10.958775   5.615017   2.926868 H        1 UNL1     0.0280
     99 H         -10.335693   5.101239   4.522967 H        1 UNL1     0.0280
     100 H         -11.971861   1.885778   3.644811 H        1 UNL1     0.2922
     101 H         -4.457407   0.392681   -3.935301 H        1 UNL1     0.0236
     102 H         -3.40628   1.739042   -3.344958 H        1 UNL1     0.0236
     103 H         -5.129964   1.919171   -3.45434 H        1 UNL1     0.0236
     104 H         -2.37734   0.023325   -2.989019 H        1 UNL1     0.2098
     105 H         0.205684   1.454459   0.923598 H        1 UNL1     0.0234
     106 H         -1.232961   0.407373   1.081738 H        1 UNL1     0.0234
     107 H         0.0   -0.0   0.0 H        1 UNL1     0.0234
     108 H         -2.345649   3.786537   -1.664067 H        1 UNL1     0.2098
     109 H         -2.646879   2.291447   2.169925 H        1 UNL1     0.0234
     110 H         -1.166603   1.364515   2.572892 H        1 UNL1     0.0234
     111 H         -2.054575   2.176907   3.814008 H        1 UNL1     0.0234
     112 H         4.212809   3.77801   0.822835 H        1 UNL1     0.0342
     113 H         2.551303   4.464495   0.902674 H        1 UNL1     0.0342
     114 H         3.607092   4.513923   2.317182 H        1 UNL1     0.0342
     115 H         0.842609   5.679283   -1.110837 H        1 UNL1     0.0234
     116 H         -0.015654   6.08205   0.379783 H        1 UNL1     0.0234
     117 H         1.72632   5.73898   0.341362 H        1 UNL1     0.0234
     118 H         -4.868597   4.853485   3.977807 H        1 UNL1     0.0309
     119 H         -6.433702   4.13247   4.466321 H        1 UNL1     0.0309
     120 H         -5.117354   3.150045   3.862811 H        1 UNL1     0.0309
     121 H         -1.968999   7.238053   2.599373 H        1 UNL1     0.0524
     122 H         -1.005063   7.812665   1.232806 H        1 UNL1     0.0524
     123 H         -2.690559   7.299862   0.968466 H        1 UNL1     0.0524
@<TRIPOS>BOND
     1     1     2    1
     2     1    42    1
     3     2     3    2
     4     3     4    1
     5     4     5    2
     6     5     7    1
     7     6    75    1
     8     6    76    1
     9     6    77    1
    10     7     9   am
    11     9    10    1
    12    10    11    2
    13    10    43    1
    14    11    14    1
    15    11    15    1
    16    12    13   ar
    17    12    27   ar
    18    12    43    1
    19    13    14    1
    20    13    30   ar
    21    14    17    2
    22    15    16    1
    23    16    17    1
    24    16    18    1
    25    16    22    1
    26    18    19    1
    27    19    20    1
    28    20    21    1
    29    21    22    1
    30    23    24    1
    31    23    88    1
    32    23    89    1
    33    24    25    1
    34    24    26    1
    35    24    90    1
    36    25    91    1
    37    25    92    1
    38    25    93    1
    39    26    94    1
    40    26    95    1
    41    26    96    1
    42    27    28   ar
    43    28    29   ar
    44    29    30   ar
    45    29    31    1
    46    30    33    1
    47    31    32    1
    48    32    33    1
    49    32    35    1
    50    34    97    1
    51    34    98    1
    52    34    99    1
    53    35    61    1
    54    36    37    1
    55    36    60    1
    56    37    38    1
    57    38    39    1
    58    39    40    1
    59    40    41    1
    60    41    42    1
    61    45   100    1
    62    47   101    1
    63    47   102    1
    64    47   103    1
    65    48   104    1
    66    49   105    1
    67    49   106    1
    68    49   107    1
    69    50   108    1
    70    51    59    1
    71    52   109    1
    72    52   110    1
    73    52   111    1
    74    53    54    1
    75    54    55    2
    76    54    56    1
    77    56   112    1
    78    56   113    1
    79    56   114    1
    80    57   115    1
    81    57   116    1
    82    57   117    1
    83    58   118    1
    84    58   119    1
    85    58   120    1
    86    59   121    1
    87    59   122    1
    88    59   123    1
    89    60    61    2
    90     1    47    1
    91     1    62    1
    92     2    63    1
    93     3    64    1
    94     4    65    1
    95     5     6    1
    96     7     8    2
    97     9    78    1
    98    15    79    1
    99    18    80    1
   100    18    81    1
   101    19    82    1
   102    19    83    1
   103    20    23    1
   104    21    84    1
   105    21    85    1
   106    22    86    1
   107    22    87    1
   108    27    45    1
   109    28    34    1
   110    32    58    1
   111    33    46    2
   112    36    51    1
   113    36    66    1
   114    37    52    1
   115    37    67    1
   116    38    53    1
   117    38    68    1
   118    42    48    1
   119    42    72    1
   120    43    44    2
   121    60    73    1
   122    61    74    1
   123    39    69    1
   124    39    57    1
   125    40    70    1
   126    40    50    1
   127    41    71    1
   128    41    49    1
