@<TRIPOS>MOLECULE
*****
 123 128 0 0 0
SMALL
GASTEIGER

@<TRIPOS>ATOM
     1 C         5.036446   2.056861   0.644428 C.3        1 UNL1     0.0009
     2 C         6.422172   2.99854   -0.149324 C.2        1 UNL1     -0.0787
     3 C         7.717623   3.02052   -0.795364 C.2        1 UNL1     -0.0649
     4 C         8.512564   4.345056   -1.488205 C.2        1 UNL1     -0.0542
     5 C         9.522099   4.747924   -2.396839 C.2        1 UNL1     0.0115
     6 C         10.706283   4.240962   -3.265183 C.3        1 UNL1     -0.0348
     7 C         9.516582   6.256613   -2.945306 C.2        1 UNL1     0.2441
     8 O         10.271716   7.121156   -2.522382 O.2        1 UNL1     -0.2702
     9 N         8.770721   6.453339   -4.120526 N.am        1 UNL1     -0.2772
     10 C         7.458375   6.732469   -3.815311 C.2        1 UNL1     0.1049
     11 C         6.68245   5.691064   -3.575233 C.2        1 UNL1     0.0801
     12 C         6.023776   8.183608   -2.368433 C.ar        1 UNL1     0.0753
     13 C         5.343574   6.986556   -1.977281 C.ar        1 UNL1     0.0305
     14 C         5.56637   5.718995   -2.669163 C.2        1 UNL1     0.0924
     15 N         6.905359   4.381835   -3.782014 N.pl3        1 UNL1     -0.3170
     16 C         5.678714   3.679439   -3.513249 C.3        1 UNL1     0.1275
     17 N         4.958833   4.546668   -2.509552 N.2        1 UNL1     -0.2557
     18 C         4.842846   3.724866   -4.788774 C.3        1 UNL1     0.0016
     19 C         5.663049   3.142305   -5.92872 C.3        1 UNL1     0.0026
     20 N         6.028534   1.77377   -5.59025 N.3        1 UNL1     -0.3018
     21 C         6.783022   1.621754   -4.344454 C.3        1 UNL1     0.0026
     22 C         5.93866   2.209267   -3.212298 C.3        1 UNL1     0.0016
     23 C         6.548979   1.032742   -6.721912 C.3        1 UNL1     0.0012
     24 C         5.429972   0.737568   -7.733076 C.3        1 UNL1     -0.0339
     25 C         5.772999   1.286652   -9.127671 C.3        1 UNL1     -0.0615
     26 C         5.145114   -0.753727   -7.774001 C.3        1 UNL1     -0.0615
     27 C         5.717895   9.410971   -1.785222 C.ar        1 UNL1     0.1347
     28 C         4.72727   9.572   -0.832972 C.ar        1 UNL1     0.0342
     29 C         4.104689   8.372149   -0.428108 C.ar        1 UNL1     0.1435
     30 C         4.425858   7.130258   -0.97745 C.ar        1 UNL1     0.0774
     31 O         3.045492   8.375865   0.410399 O.3        1 UNL1     -0.4436
     32 C         2.419145   7.099912   0.209136 C.3        1 UNL1     0.3143
     33 C         3.510945   6.205178   -0.341897 C.2        1 UNL1     0.2504
     34 C         4.174107   10.883525   -0.349222 C.3        1 UNL1     -0.0327
     35 O         2.072124   6.587164   1.501389 O.2        1 UNL1     -0.4528
     36 C         -1.01289   4.439308   0.974622 C.3        1 UNL1     0.0854
     37 C         -1.210698   3.195534   0.025188 C.3        1 UNL1     0.0236
     38 C         -1.728099   1.864215   0.754317 C.3        1 UNL1     0.1131
     39 C         -0.984629   1.337778   2.047524 C.3        1 UNL1     0.0200
     40 C         0.681975   1.312912   2.112721 C.3        1 UNL1     0.0661
     41 C         1.712942   0.662446   0.933056 C.3        1 UNL1     0.0091
     42 C         3.397298   1.170831   0.413545 C.3        1 UNL1     0.0661
     43 C         7.00324   8.089793   -3.479337 C.2        1 UNL1     0.2131
     44 O         7.346337   9.04199   -4.156348 O.2        1 UNL1     -0.2851
     45 O         6.458179   10.519858   -2.189929 O.3        1 UNL1     -0.5056
     46 O         3.613913   5.001886   -0.256227 O.2        1 UNL1     -0.2836
     47 C         5.441914   1.602078   2.072276 C.3        1 UNL1     -0.0566
     48 O         3.947688   -0.205703   0.45015 O.3        1 UNL1     -0.3909
     49 C         0.916879   0.417651   -0.329423 C.3        1 UNL1     -0.0577
     50 O         1.184547   2.555324   2.561672 O.3        1 UNL1     -0.3910
     51 O         -1.143419   4.187168   2.355498 O.3        1 UNL1     -0.3753
     52 C         -0.140112   3.156928   -1.113804 C.3        1 UNL1     -0.0564
     53 O         -2.238709   0.819574   -0.19454 O.3        1 UNL1     -0.4608
     54 C         -2.349031   -0.518422   0.080278 C.2        1 UNL1     0.3042
     55 O         -1.599835   -1.421273   -0.290403 O.2        1 UNL1     -0.2512
     56 C         -3.500658   -0.853637   0.984767 C.3        1 UNL1     0.0332
     57 C         -1.771931   1.902644   3.320024 C.3        1 UNL1     -0.0567
     58 C         1.345112   7.307432   -0.883987 C.3        1 UNL1     0.0210
     59 C         -1.553961   5.310419   3.133719 C.3        1 UNL1     0.0372
     60 C         0.26926   5.172598   0.791495 C.2        1 UNL1     -0.0208
     61 C         1.134412   5.639501   1.692748 C.2        1 UNL1     0.0882
     62 H         4.487816   2.999367   0.760179 H        1 UNL1     0.0365
     63 H         6.0772   4.025103   -0.009206 H        1 UNL1     0.0576
     64 H         8.24876   2.099131   -1.044452 H        1 UNL1     0.0615
     65 H         7.954006   5.20813   -1.115915 H        1 UNL1     0.0622
     66 H         -1.80597   5.14072   0.67951 H        1 UNL1     0.0645
     67 H         -2.087509   3.464116   -0.589325 H        1 UNL1     0.0362
     68 H         -2.710031   2.216507   1.105348 H        1 UNL1     0.0741
     69 H         -1.243379   0.298277   2.198834 H        1 UNL1     0.0359
     70 H         0.829071   0.628843   2.970318 H        1 UNL1     0.0600
     71 H         1.82551   -0.368579   1.321995 H        1 UNL1     0.0348
     72 H         3.240974   1.611564   1.40885 H        1 UNL1     0.0602
     73 H         0.387739   5.418046   -0.234647 H        1 UNL1     0.0628
     74 H         1.116491   5.386749   2.753424 H        1 UNL1     0.1022
     75 H         10.780485   3.127834   -3.215444 H        1 UNL1     0.0279
     76 H         10.636262   4.423496   -4.335158 H        1 UNL1     0.0279
     77 H         11.685896   4.541611   -2.865595 H        1 UNL1     0.0279
     78 H         8.78106   5.602214   -4.678699 H        1 UNL1     0.1553
     79 H         7.609608   4.02805   -4.403144 H        1 UNL1     0.1484
     80 H         3.917694   3.157624   -4.630354 H        1 UNL1     0.0317
     81 H         4.544289   4.751955   -5.024579 H        1 UNL1     0.0317
     82 H         6.555491   3.749621   -6.139971 H        1 UNL1     0.0428
     83 H         5.048936   3.186045   -6.828721 H        1 UNL1     0.0428
     84 H         6.97548   0.579215   -4.072637 H        1 UNL1     0.0428
     85 H         7.784524   2.068056   -4.416035 H        1 UNL1     0.0428
     86 H         6.458543   1.962375   -2.30524 H        1 UNL1     0.0317
     87 H         4.995446   1.656625   -3.122685 H        1 UNL1     0.0317
     88 H         7.310604   1.651492   -7.214223 H        1 UNL1     0.0429
     89 H         7.045014   0.108318   -6.399169 H        1 UNL1     0.0429
     90 H         4.50207   1.210446   -7.390153 H        1 UNL1     0.0308
     91 H         6.799646   1.037051   -9.411919 H        1 UNL1     0.0233
     92 H         5.086257   0.8895   -9.878846 H        1 UNL1     0.0233
     93 H         5.685013   2.378611   -9.179816 H        1 UNL1     0.0233
     94 H         4.661403   -1.020039   -8.720013 H        1 UNL1     0.0233
     95 H         6.081124   -1.314962   -7.704266 H        1 UNL1     0.0233
     96 H         4.489441   -1.057419   -6.953127 H        1 UNL1     0.0233
     97 H         3.322033   10.747975   0.310192 H        1 UNL1     0.0280
     98 H         4.912088   11.456518   0.227248 H        1 UNL1     0.0280
     99 H         3.850505   11.488337   -1.212112 H        1 UNL1     0.0280
     100 H         5.941983   11.271712   -2.42205 H        1 UNL1     0.2922
     101 H         4.574809   1.187913   2.586332 H        1 UNL1     0.0236
     102 H         5.923918   2.388605   2.651958 H        1 UNL1     0.0236
     103 H         6.175029   0.778474   2.052027 H        1 UNL1     0.0236
     104 H         4.275855   -0.36815   1.356179 H        1 UNL1     0.2098
     105 H         0.688269   1.315909   -0.897473 H        1 UNL1     0.0234
     106 H         1.327849   -0.34972   -0.985299 H        1 UNL1     0.0234
     107 H         0.0   -0.0   0.0 H        1 UNL1     0.0234
     108 H         1.003813   3.211534   1.861321 H        1 UNL1     0.2098
     109 H         0.885043   3.116685   -0.719914 H        1 UNL1     0.0234
     110 H         -0.293482   2.334632   -1.820947 H        1 UNL1     0.0234
     111 H         -0.182756   4.058012   -1.740043 H        1 UNL1     0.0234
     112 H         -3.519191   -1.930093   1.180326 H        1 UNL1     0.0342
     113 H         -3.469056   -0.288062   1.914805 H        1 UNL1     0.0342
     114 H         -4.432497   -0.589491   0.46605 H        1 UNL1     0.0342
     115 H         -2.845656   1.675032   3.270071 H        1 UNL1     0.0234
     116 H         -1.400493   1.52588   4.27508 H        1 UNL1     0.0234
     117 H         -1.789968   3.004851   3.372527 H        1 UNL1     0.0234
     118 H         0.323507   7.314957   -0.465331 H        1 UNL1     0.0309
     119 H         1.498852   8.219279   -1.469735 H        1 UNL1     0.0309
     120 H         1.31599   6.484325   -1.606311 H        1 UNL1     0.0309
     121 H         -1.187425   5.159917   4.148784 H        1 UNL1     0.0524
     122 H         -1.124685   6.255925   2.762535 H        1 UNL1     0.0524
     123 H         -2.637263   5.391355   3.134518 H        1 UNL1     0.0524
@<TRIPOS>BOND
     1     1     2    1
     2     1    42    1
     3     2     3    2
     4     3     4    1
     5     4     5    2
     6     5     7    1
     7     6    75    1
     8     6    76    1
     9     6    77    1
    10     7     9   am
    11     9    10    1
    12    10    11    2
    13    10    43    1
    14    11    14    1
    15    11    15    1
    16    12    13   ar
    17    12    27   ar
    18    12    43    1
    19    13    14    1
    20    13    30   ar
    21    14    17    2
    22    15    16    1
    23    16    17    1
    24    16    18    1
    25    16    22    1
    26    18    19    1
    27    19    20    1
    28    20    21    1
    29    21    22    1
    30    23    24    1
    31    23    88    1
    32    23    89    1
    33    24    25    1
    34    24    26    1
    35    24    90    1
    36    25    91    1
    37    25    92    1
    38    25    93    1
    39    26    94    1
    40    26    95    1
    41    26    96    1
    42    27    28   ar
    43    28    29   ar
    44    29    30   ar
    45    29    31    1
    46    30    33    1
    47    31    32    1
    48    32    33    1
    49    32    35    1
    50    34    97    1
    51    34    98    1
    52    34    99    1
    53    35    61    1
    54    36    37    1
    55    36    60    1
    56    37    38    1
    57    38    39    1
    58    39    40    1
    59    40    41    1
    60    41    42    1
    61    45   100    1
    62    47   101    1
    63    47   102    1
    64    47   103    1
    65    48   104    1
    66    49   105    1
    67    49   106    1
    68    49   107    1
    69    50   108    1
    70    51    59    1
    71    52   109    1
    72    52   110    1
    73    52   111    1
    74    53    54    1
    75    54    55    2
    76    54    56    1
    77    56   112    1
    78    56   113    1
    79    56   114    1
    80    57   115    1
    81    57   116    1
    82    57   117    1
    83    58   118    1
    84    58   119    1
    85    58   120    1
    86    59   121    1
    87    59   122    1
    88    59   123    1
    89    60    61    2
    90     1    47    1
    91     1    62    1
    92     2    63    1
    93     3    64    1
    94     4    65    1
    95     5     6    1
    96     7     8    2
    97     9    78    1
    98    15    79    1
    99    18    80    1
   100    18    81    1
   101    19    82    1
   102    19    83    1
   103    20    23    1
   104    21    84    1
   105    21    85    1
   106    22    86    1
   107    22    87    1
   108    27    45    1
   109    28    34    1
   110    32    58    1
   111    33    46    2
   112    36    51    1
   113    36    66    1
   114    37    52    1
   115    37    67    1
   116    38    53    1
   117    38    68    1
   118    42    48    1
   119    42    72    1
   120    43    44    2
   121    60    73    1
   122    61    74    1
   123    39    69    1
   124    39    57    1
   125    40    70    1
   126    40    50    1
   127    41    71    1
   128    41    49    1
