@<TRIPOS>MOLECULE
*****
 123 128 0 0 0
SMALL
GASTEIGER

@<TRIPOS>ATOM
     1 C         3.951988   3.366244   1.749842 C.3        1 UNL1     0.0009
     2 C         5.395507   3.573183   2.894599 C.2        1 UNL1     -0.0787
     3 C         5.962747   4.099023   4.118436 C.2        1 UNL1     -0.0649
     4 C         7.507836   3.821525   4.752512 C.2        1 UNL1     -0.0542
     5 C         8.306767   3.858354   5.921884 C.2        1 UNL1     0.0115
     6 C         8.349948   4.335161   7.399758 C.3        1 UNL1     -0.0348
     7 C         9.684999   3.035664   5.947344 C.2        1 UNL1     0.2441
     8 O         10.778625   3.564947   5.804636 O.2        1 UNL1     -0.2702
     9 N         9.57175   1.710801   6.403486 N.am        1 UNL1     -0.2772
     10 C         9.276447   0.866524   5.357869 C.2        1 UNL1     0.1049
     11 C         8.003502   0.788005   5.014842 C.2        1 UNL1     0.0801
     12 C         9.979667   0.266481   3.033484 C.ar        1 UNL1     0.0753
     13 C         8.602632   0.399635   2.666534 C.ar        1 UNL1     0.0305
     14 C         7.55227   0.535893   3.673124 C.2        1 UNL1     0.0924
     15 N         6.908112   1.237186   5.651147 N.pl3        1 UNL1     -0.3170
     16 C         5.756052   0.744325   4.943969 C.3        1 UNL1     0.1275
     17 N         6.231311   0.570455   3.522132 N.2        1 UNL1     -0.2557
     18 C         5.469295   -0.659087   5.469237 C.3        1 UNL1     0.0016
     19 C         5.296645   -0.587769   6.97811 C.3        1 UNL1     0.0026
     20 N         4.198423   0.319564   7.2809 N.3        1 UNL1     -0.3018
     21 C         4.35488   1.679993   6.762129 C.3        1 UNL1     0.0026
     22 C         4.522123   1.584912   5.244604 C.3        1 UNL1     0.0016
     23 C         3.757079   0.230801   8.658572 C.3        1 UNL1     0.0012
     24 C         3.039056   -1.104643   8.909151 C.3        1 UNL1     -0.0339
     25 C         1.902109   -0.948502   9.932394 C.3        1 UNL1     -0.0615
     26 C         2.534911   -1.67915   7.596688 C.3        1 UNL1     -0.0615
     27 C         10.960583   0.016138   2.076797 C.ar        1 UNL1     0.1347
     28 C         10.681815   -0.159563   0.73312 C.ar        1 UNL1     0.0342
     29 C         9.325948   0.024397   0.388233 C.ar        1 UNL1     0.1435
     30 C         8.337661   0.311275   1.330683 C.ar        1 UNL1     0.0774
     31 O         8.877298   -0.220821   -0.862202 O.3        1 UNL1     -0.4436
     32 C         7.4596   -0.389683   -0.712225 C.3        1 UNL1     0.3143
     33 C         7.106998   0.340007   0.56818 C.2        1 UNL1     0.2504
     34 C         11.638123   -0.675975   -0.305578 C.3        1 UNL1     -0.0327
     35 O         6.830027   0.3219   -1.784857 O.2        1 UNL1     -0.4528
     36 C         3.603492   -1.53908   -2.515823 C.3        1 UNL1     0.0854
     37 C         2.404   -1.871983   -1.547362 C.3        1 UNL1     0.0236
     38 C         0.967401   -1.370285   -2.053551 C.3        1 UNL1     0.1131
     39 C         0.777984   0.130625   -2.515785 C.3        1 UNL1     0.0200
     40 C         1.446148   1.377575   -1.631981 C.3        1 UNL1     0.0661
     41 C         1.299795   1.597569   0.043667 C.3        1 UNL1     0.0091
     42 C         2.469054   2.326531   1.254802 C.3        1 UNL1     0.0661
     43 C         10.31729   0.314789   4.477762 C.2        1 UNL1     0.2131
     44 O         11.335893   -0.159477   4.947077 O.2        1 UNL1     -0.2851
     45 O         12.282555   -0.05412   2.511414 O.3        1 UNL1     -0.5056
     46 O         6.053869   0.849818   0.87941 O.2        1 UNL1     -0.2836
     47 C         3.68547   4.684383   0.974305 C.3        1 UNL1     -0.0566
     48 O         1.444764   3.182987   1.900115 O.3        1 UNL1     -0.3909
     49 C         0.765359   0.323182   0.65833 C.3        1 UNL1     -0.0577
     50 O         2.778297   1.621044   -2.036732 O.3        1 UNL1     -0.3910
     51 O         3.299534   -0.69996   -3.607115 O.3        1 UNL1     -0.3753
     52 C         2.830081   -1.793043   -0.044973 C.3        1 UNL1     -0.0564
     53 O         -0.180787   -1.991184   -1.312961 O.3        1 UNL1     -0.4608
     54 C         -1.343157   -1.352427   -0.968264 C.2        1 UNL1     0.3042
     55 O         -1.657162   -0.919471   0.139792 O.2        1 UNL1     -0.2512
     56 C         -2.27631   -1.135853   -2.12543 C.3        1 UNL1     0.0332
     57 C         0.946235   0.170464   -4.105842 C.3        1 UNL1     -0.0567
     58 C         7.218744   -1.903331   -0.506343 C.3        1 UNL1     0.0210
     59 C         3.270641   -1.352917   -4.875452 C.3        1 UNL1     0.0372
     60 C         4.805427   -0.963237   -1.853316 C.2        1 UNL1     -0.0208
     61 C         5.575925   0.067097   -2.204727 C.2        1 UNL1     0.0882
     62 H         4.579932   2.743234   1.10157 H        1 UNL1     0.0365
     63 H         6.184085   3.084968   2.318179 H        1 UNL1     0.0576
     64 H         5.348724   4.620386   4.856178 H        1 UNL1     0.0615
     65 H         8.055608   3.375078   3.918178 H        1 UNL1     0.0622
     66 H         3.916731   -2.51495   -2.912818 H        1 UNL1     0.0645
     67 H         2.293474   -2.967623   -1.624281 H        1 UNL1     0.0362
     68 H         0.875118   -1.97188   -2.97066 H        1 UNL1     0.0741
     69 H         -0.277255   0.368681   -2.501407 H        1 UNL1     0.0359
     70 H         0.872245   2.23065   -2.041808 H        1 UNL1     0.0600
     71 H         0.402873   2.246767   0.075771 H        1 UNL1     0.0348
     72 H         2.790377   2.688535   0.267371 H        1 UNL1     0.0602
     73 H         5.093052   -1.589822   -1.045905 H        1 UNL1     0.0628
     74 H         5.322884   0.789664   -2.981325 H        1 UNL1     0.1022
     75 H         7.747312   5.266376   7.529001 H        1 UNL1     0.0279
     76 H         7.910943   3.667694   8.137886 H        1 UNL1     0.0279
     77 H         9.34862   4.678868   7.706712 H        1 UNL1     0.0279
     78 H         8.810049   1.644321   7.0754 H        1 UNL1     0.1553
     79 H         6.887774   1.472716   6.626362 H        1 UNL1     0.1484
     80 H         4.566951   -1.046232   4.980708 H        1 UNL1     0.0317
     81 H         6.283175   -1.346241   5.214152 H        1 UNL1     0.0317
     82 H         6.222647   -0.269529   7.479263 H        1 UNL1     0.0428
     83 H         5.094844   -1.599226   7.33206 H        1 UNL1     0.0428
     84 H         3.482375   2.317987   6.933915 H        1 UNL1     0.0428
     85 H         5.177614   2.214163   7.257191 H        1 UNL1     0.0428
     86 H         4.499906   2.597583   4.886843 H        1 UNL1     0.0317
     87 H         3.626581   1.137636   4.796222 H        1 UNL1     0.0317
     88 H         4.643339   0.277734   9.304818 H        1 UNL1     0.0429
     89 H         3.117271   1.081027   8.927896 H        1 UNL1     0.0429
     90 H         3.76069   -1.833124   9.297446 H        1 UNL1     0.0308
     91 H         1.287999   -0.069811   9.713596 H        1 UNL1     0.0233
     92 H         1.266383   -1.836965   9.942052 H        1 UNL1     0.0233
     93 H         2.275574   -0.828576   10.95659 H        1 UNL1     0.0233
     94 H         1.719152   -2.386164   7.782439 H        1 UNL1     0.0233
     95 H         2.147924   -0.877131   6.96189 H        1 UNL1     0.0233
     96 H         3.330127   -2.202662   7.058603 H        1 UNL1     0.0233
     97 H         12.421474   0.041558   -0.53083 H        1 UNL1     0.0280
     98 H         12.152087   -1.588902   0.022539 H        1 UNL1     0.0280
     99 H         11.08971   -0.892604   -1.236927 H        1 UNL1     0.0280
     100 H         12.552402   0.660316   3.061309 H        1 UNL1     0.2922
     101 H         2.665384   4.685497   0.590795 H        1 UNL1     0.0236
     102 H         4.41736   4.875933   0.190322 H        1 UNL1     0.0236
     103 H         3.738668   5.569029   1.630632 H        1 UNL1     0.0236
     104 H         0.855744   3.519313   1.196616 H        1 UNL1     0.2098
     105 H         1.49599   -0.477856   0.737873 H        1 UNL1     0.0234
     106 H         0.247578   0.457887   1.607901 H        1 UNL1     0.0234
     107 H         -0.0   0.0   0.0 H        1 UNL1     0.0234
     108 H         3.190617   2.184422   -1.353823 H        1 UNL1     0.2098
     109 H         3.62819   -2.507972   0.199178 H        1 UNL1     0.0234
     110 H         3.132356   -0.786722   0.264366 H        1 UNL1     0.0234
     111 H         1.995863   -2.038379   0.625726 H        1 UNL1     0.0234
     112 H         -3.300148   -1.383674   -1.829311 H        1 UNL1     0.0342
     113 H         -2.217103   -0.120617   -2.514832 H        1 UNL1     0.0342
     114 H         -1.984649   -1.820074   -2.934096 H        1 UNL1     0.0342
     115 H         0.289604   0.920833   -4.567331 H        1 UNL1     0.0234
     116 H         1.965269   0.376248   -4.439416 H        1 UNL1     0.0234
     117 H         0.603048   -0.750548   -4.607739 H        1 UNL1     0.0234
     118 H         6.717279   -2.365242   -1.374778 H        1 UNL1     0.0309
     119 H         8.136115   -2.458221   -0.285595 H        1 UNL1     0.0309
     120 H         6.532121   -2.110918   0.321644 H        1 UNL1     0.0309
     121 H         3.490084   -0.604646   -5.636564 H        1 UNL1     0.0524
     122 H         4.035402   -2.143223   -4.956663 H        1 UNL1     0.0524
     123 H         2.291787   -1.790137   -5.050884 H        1 UNL1     0.0524
@<TRIPOS>BOND
     1     1     2    1
     2     1    42    1
     3     2     3    2
     4     3     4    1
     5     4     5    2
     6     5     7    1
     7     6    75    1
     8     6    76    1
     9     6    77    1
    10     7     9   am
    11     9    10    1
    12    10    11    2
    13    10    43    1
    14    11    14    1
    15    11    15    1
    16    12    13   ar
    17    12    27   ar
    18    12    43    1
    19    13    14    1
    20    13    30   ar
    21    14    17    2
    22    15    16    1
    23    16    17    1
    24    16    18    1
    25    16    22    1
    26    18    19    1
    27    19    20    1
    28    20    21    1
    29    21    22    1
    30    23    24    1
    31    23    88    1
    32    23    89    1
    33    24    25    1
    34    24    26    1
    35    24    90    1
    36    25    91    1
    37    25    92    1
    38    25    93    1
    39    26    94    1
    40    26    95    1
    41    26    96    1
    42    27    28   ar
    43    28    29   ar
    44    29    30   ar
    45    29    31    1
    46    30    33    1
    47    31    32    1
    48    32    33    1
    49    32    35    1
    50    34    97    1
    51    34    98    1
    52    34    99    1
    53    35    61    1
    54    36    37    1
    55    36    60    1
    56    37    38    1
    57    38    39    1
    58    39    40    1
    59    40    41    1
    60    41    42    1
    61    45   100    1
    62    47   101    1
    63    47   102    1
    64    47   103    1
    65    48   104    1
    66    49   105    1
    67    49   106    1
    68    49   107    1
    69    50   108    1
    70    51    59    1
    71    52   109    1
    72    52   110    1
    73    52   111    1
    74    53    54    1
    75    54    55    2
    76    54    56    1
    77    56   112    1
    78    56   113    1
    79    56   114    1
    80    57   115    1
    81    57   116    1
    82    57   117    1
    83    58   118    1
    84    58   119    1
    85    58   120    1
    86    59   121    1
    87    59   122    1
    88    59   123    1
    89    60    61    2
    90     1    47    1
    91     1    62    1
    92     2    63    1
    93     3    64    1
    94     4    65    1
    95     5     6    1
    96     7     8    2
    97     9    78    1
    98    15    79    1
    99    18    80    1
   100    18    81    1
   101    19    82    1
   102    19    83    1
   103    20    23    1
   104    21    84    1
   105    21    85    1
   106    22    86    1
   107    22    87    1
   108    27    45    1
   109    28    34    1
   110    32    58    1
   111    33    46    2
   112    36    51    1
   113    36    66    1
   114    37    52    1
   115    37    67    1
   116    38    53    1
   117    38    68    1
   118    42    48    1
   119    42    72    1
   120    43    44    2
   121    60    73    1
   122    61    74    1
   123    39    69    1
   124    39    57    1
   125    40    70    1
   126    40    50    1
   127    41    71    1
   128    41    49    1
