@<TRIPOS>MOLECULE
*****
 123 128 0 0 0
SMALL
GASTEIGER

@<TRIPOS>ATOM
     1 C         -2.532054   0.875131   3.276537 C.3        1 UNL1     0.0009
     2 C         -4.160571   0.090302   3.687646 C.2        1 UNL1     -0.0787
     3 C         -5.606485   0.147539   3.733523 C.2        1 UNL1     -0.0649
     4 C         -6.683618   -1.086106   4.162781 C.2        1 UNL1     -0.0542
     5 C         -8.021242   -1.543644   4.070603 C.2        1 UNL1     0.0115
     6 C         -9.460106   -1.142114   3.644261 C.3        1 UNL1     -0.0348
     7 C         -8.335986   -3.08915   4.369497 C.2        1 UNL1     0.2441
     8 O         -8.818651   -3.478054   5.42416 O.2        1 UNL1     -0.2702
     9 N         -8.264821   -3.932481   3.247053 N.am        1 UNL1     -0.2772
     10 C         -6.980707   -4.396048   3.075356 C.2        1 UNL1     0.1049
     11 C         -6.15064   -3.588964   2.439884 C.2        1 UNL1     0.0801
     12 C         -5.074083   -5.455773   4.299734 C.ar        1 UNL1     0.0753
     13 C         -4.248513   -4.426108   3.745809 C.ar        1 UNL1     0.0305
     14 C         -4.736222   -3.537725   2.693209 C.2        1 UNL1     0.0924
     15 N         -6.400574   -2.467479   1.742509 N.pl3        1 UNL1     -0.3170
     16 C         -5.175011   -2.063484   1.106084 C.3        1 UNL1     0.1275
     17 N         -4.087758   -2.604571   2.002091 N.2        1 UNL1     -0.2557
     18 C         -5.068962   -2.838403   -0.203861 C.3        1 UNL1     0.0016
     19 C         -6.32001   -2.575737   -1.02695 C.3        1 UNL1     0.0026
     20 N         -6.42654   -1.144121   -1.27222 N.3        1 UNL1     -0.3018
     21 C         -6.472383   -0.309112   -0.070127 C.3        1 UNL1     0.0026
     22 C         -5.204226   -0.585582   0.73934 C.3        1 UNL1     0.0016
     23 C         -7.406523   -0.817535   -2.28889 C.3        1 UNL1     0.0012
     24 C         -6.912795   -1.260852   -3.675057 C.3        1 UNL1     -0.0339
     25 C         -7.386394   -0.297063   -4.775452 C.3        1 UNL1     -0.0615
     26 C         -5.40059   -1.402182   -3.668609 C.3        1 UNL1     -0.0615
     27 C         -4.565455   -6.374666   5.214639 C.ar        1 UNL1     0.1347
     28 C         -3.242597   -6.388567   5.61949 C.ar        1 UNL1     0.0342
     29 C         -2.460521   -5.335848   5.098622 C.ar        1 UNL1     0.1435
     30 C         -2.965479   -4.38651   4.209243 C.ar        1 UNL1     0.0774
     31 O         -1.127824   -5.275917   5.311538 O.3        1 UNL1     -0.4436
     32 C         -0.635246   -4.403112   4.283701 C.3        1 UNL1     0.3143
     33 C         -1.825424   -3.557387   3.87819 C.2        1 UNL1     0.2504
     34 C         -2.569606   -7.486072   6.395806 C.3        1 UNL1     -0.0327
     35 O         0.315111   -3.520859   4.893375 O.2        1 UNL1     -0.4528
     36 C         2.824424   -2.658061   2.179149 C.3        1 UNL1     0.0854
     37 C         2.577341   -2.004712   0.765075 C.3        1 UNL1     0.0236
     38 C         3.430241   -0.677948   0.475242 C.3        1 UNL1     0.1131
     39 C         3.430084   0.50144   1.52943 C.3        1 UNL1     0.0200
     40 C         2.008609   0.984836   2.256187 C.3        1 UNL1     0.0661
     41 C         0.556662   1.345937   1.45677 C.3        1 UNL1     0.0091
     42 C         -1.183745   1.129838   1.994996 C.3        1 UNL1     0.0661
     43 C         -6.466855   -5.567961   3.799876 C.2        1 UNL1     0.2131
     44 O         -7.129146   -6.586957   3.875748 O.2        1 UNL1     -0.2851
     45 O         -5.446999   -7.316889   5.740502 O.3        1 UNL1     -0.5056
     46 O         -1.831841   -2.441533   3.40842 O.2        1 UNL1     -0.2836
     47 C         -2.174163   1.958036   4.329728 C.3        1 UNL1     -0.0566
     48 O         -1.598451   2.494428   1.588758 O.3        1 UNL1     -0.3909
     49 C         0.64439   0.840974   0.033812 C.3        1 UNL1     -0.0577
     50 O         1.745905   0.209462   3.408361 O.3        1 UNL1     -0.3910
     51 O         3.62006   -1.911694   3.072083 O.3        1 UNL1     -0.3753
     52 C         1.089463   -2.152859   0.307668 C.3        1 UNL1     -0.0564
     53 O         3.449463   -0.280514   -0.971825 O.3        1 UNL1     -0.4608
     54 C         4.55067   0.152887   -1.662793 C.2        1 UNL1     0.3042
     55 O         4.830913   1.310528   -1.971287 O.2        1 UNL1     -0.2512
     56 C         5.515259   -0.945964   -2.007478 C.3        1 UNL1     0.0332
     57 C         4.717642   0.31658   2.460126 C.3        1 UNL1     -0.0567
     58 C         -0.23811   -5.308327   3.094416 C.3        1 UNL1     0.0210
     59 C         4.928565   -2.436694   3.2913 C.3        1 UNL1     0.0372
     60 C         1.591102   -3.039929   2.919591 C.2        1 UNL1     -0.0208
     61 C         1.259346   -2.857894   4.198476 C.2        1 UNL1     0.0882
     62 H         -2.029596   -0.046994   3.592658 H        1 UNL1     0.0365
     63 H         -3.82684   -0.842415   4.147139 H        1 UNL1     0.0576
     64 H         -6.159397   0.992565   3.317197 H        1 UNL1     0.0615
     65 H         -6.044713   -1.837277   4.635038 H        1 UNL1     0.0622
     66 H         3.348264   -3.599271   1.960605 H        1 UNL1     0.0645
     67 H         3.033553   -2.717989   0.056791 H        1 UNL1     0.0362
     68 H         4.445864   -1.100772   0.510618 H        1 UNL1     0.0741
     69 H         3.765586   1.405934   1.0398 H        1 UNL1     0.0359
     70 H         2.321936   1.970091   2.651356 H        1 UNL1     0.0600
     71 H         0.683713   2.436254   1.308364 H        1 UNL1     0.0348
     72 H         -0.577516   1.10618   2.912188 H        1 UNL1     0.0602
     73 H         0.979103   -3.639838   2.292842 H        1 UNL1     0.0628
     74 H         1.800693   -2.211333   4.889954 H        1 UNL1     0.1022
     75 H         -9.725543   -0.13883   4.05657 H        1 UNL1     0.0279
     76 H         -9.631165   -1.010029   2.578258 H        1 UNL1     0.0279
     77 H         -10.232355   -1.776471   4.103524 H        1 UNL1     0.0279
     78 H         -8.516414   -3.410253   2.410359 H        1 UNL1     0.1553
     79 H         -7.30551   -2.225303   1.382822 H        1 UNL1     0.1484
     80 H         -4.164913   -2.518807   -0.73614 H        1 UNL1     0.0317
     81 H         -4.958966   -3.911786   -0.015714 H        1 UNL1     0.0317
     82 H         -7.222656   -2.960393   -0.529776 H        1 UNL1     0.0428
     83 H         -6.224358   -3.139107   -1.955667 H        1 UNL1     0.0428
     84 H         -6.471722   0.764695   -0.281666 H        1 UNL1     0.0428
     85 H         -7.396536   -0.467624   0.502701 H        1 UNL1     0.0428
     86 H         -5.207186   0.134031   1.536922 H        1 UNL1     0.0317
     87 H         -4.318459   -0.311375   0.153402 H        1 UNL1     0.0317
     88 H         -8.332413   -1.360254   -2.057636 H        1 UNL1     0.0429
     89 H         -7.650002   0.252695   -2.278875 H        1 UNL1     0.0429
     90 H         -7.306139   -2.260717   -3.893604 H        1 UNL1     0.0308
     91 H         -7.229334   0.746082   -4.485137 H        1 UNL1     0.0233
     92 H         -6.859498   -0.491766   -5.712511 H        1 UNL1     0.0233
     93 H         -8.454831   -0.408318   -4.996585 H        1 UNL1     0.0233
     94 H         -5.010242   -1.331075   -4.689593 H        1 UNL1     0.0233
     95 H         -4.952584   -0.597018   -3.079573 H        1 UNL1     0.0233
     96 H         -5.091351   -2.362483   -3.246515 H        1 UNL1     0.0233
     97 H         -1.720071   -7.901078   5.86168 H        1 UNL1     0.0280
     98 H         -2.175971   -7.131428   7.357334 H        1 UNL1     0.0280
     99 H         -3.28948   -8.299115   6.585109 H        1 UNL1     0.0280
     100 H         -6.253576   -6.958813   6.067363 H        1 UNL1     0.2922
     101 H         -1.403013   1.578568   4.999793 H        1 UNL1     0.0236
     102 H         -3.041678   2.330192   4.873696 H        1 UNL1     0.0236
     103 H         -1.727006   2.853762   3.867213 H        1 UNL1     0.0236
     104 H         -1.612379   3.050021   2.392557 H        1 UNL1     0.2098
     105 H         0.304783   1.550725   -0.716344 H        1 UNL1     0.0234
     106 H         1.615396   0.432051   -0.245217 H        1 UNL1     0.0234
     107 H         0.0   -0.0   0.0 H        1 UNL1     0.0234
     108 H         0.815485   0.368371   3.659032 H        1 UNL1     0.2098
     109 H         0.785163   -3.204883   0.216246 H        1 UNL1     0.0234
     110 H         0.384675   -1.622685   0.957232 H        1 UNL1     0.0234
     111 H         0.924425   -1.708542   -0.682933 H        1 UNL1     0.0234
     112 H         6.378031   -0.531137   -2.537468 H        1 UNL1     0.0342
     113 H         5.829297   -1.506057   -1.127979 H        1 UNL1     0.0342
     114 H         5.00885   -1.646954   -2.685215 H        1 UNL1     0.0342
     115 H         5.127602   1.282249   2.786631 H        1 UNL1     0.0234
     116 H         4.536468   -0.282569   3.35469 H        1 UNL1     0.0234
     117 H         5.584627   -0.11503   1.930984 H        1 UNL1     0.0234
     118 H         0.855588   -5.343846   2.947556 H        1 UNL1     0.0309
     119 H         -0.620593   -6.329892   3.185595 H        1 UNL1     0.0309
     120 H         -0.609504   -4.92992   2.135781 H        1 UNL1     0.0309
     121 H         5.259085   -2.098958   4.273159 H        1 UNL1     0.0524
     122 H         4.941256   -3.539342   3.297897 H        1 UNL1     0.0524
     123 H         5.609797   -2.080836   2.523587 H        1 UNL1     0.0524
@<TRIPOS>BOND
     1     1     2    1
     2     1    42    1
     3     2     3    2
     4     3     4    1
     5     4     5    2
     6     5     7    1
     7     6    75    1
     8     6    76    1
     9     6    77    1
    10     7     9   am
    11     9    10    1
    12    10    11    2
    13    10    43    1
    14    11    14    1
    15    11    15    1
    16    12    13   ar
    17    12    27   ar
    18    12    43    1
    19    13    14    1
    20    13    30   ar
    21    14    17    2
    22    15    16    1
    23    16    17    1
    24    16    18    1
    25    16    22    1
    26    18    19    1
    27    19    20    1
    28    20    21    1
    29    21    22    1
    30    23    24    1
    31    23    88    1
    32    23    89    1
    33    24    25    1
    34    24    26    1
    35    24    90    1
    36    25    91    1
    37    25    92    1
    38    25    93    1
    39    26    94    1
    40    26    95    1
    41    26    96    1
    42    27    28   ar
    43    28    29   ar
    44    29    30   ar
    45    29    31    1
    46    30    33    1
    47    31    32    1
    48    32    33    1
    49    32    35    1
    50    34    97    1
    51    34    98    1
    52    34    99    1
    53    35    61    1
    54    36    37    1
    55    36    60    1
    56    37    38    1
    57    38    39    1
    58    39    40    1
    59    40    41    1
    60    41    42    1
    61    45   100    1
    62    47   101    1
    63    47   102    1
    64    47   103    1
    65    48   104    1
    66    49   105    1
    67    49   106    1
    68    49   107    1
    69    50   108    1
    70    51    59    1
    71    52   109    1
    72    52   110    1
    73    52   111    1
    74    53    54    1
    75    54    55    2
    76    54    56    1
    77    56   112    1
    78    56   113    1
    79    56   114    1
    80    57   115    1
    81    57   116    1
    82    57   117    1
    83    58   118    1
    84    58   119    1
    85    58   120    1
    86    59   121    1
    87    59   122    1
    88    59   123    1
    89    60    61    2
    90     1    47    1
    91     1    62    1
    92     2    63    1
    93     3    64    1
    94     4    65    1
    95     5     6    1
    96     7     8    2
    97     9    78    1
    98    15    79    1
    99    18    80    1
   100    18    81    1
   101    19    82    1
   102    19    83    1
   103    20    23    1
   104    21    84    1
   105    21    85    1
   106    22    86    1
   107    22    87    1
   108    27    45    1
   109    28    34    1
   110    32    58    1
   111    33    46    2
   112    36    51    1
   113    36    66    1
   114    37    52    1
   115    37    67    1
   116    38    53    1
   117    38    68    1
   118    42    48    1
   119    42    72    1
   120    43    44    2
   121    60    73    1
   122    61    74    1
   123    39    69    1
   124    39    57    1
   125    40    70    1
   126    40    50    1
   127    41    71    1
   128    41    49    1
