@<TRIPOS>MOLECULE
*****
 123 128 0 0 0
SMALL
GASTEIGER

@<TRIPOS>ATOM
     1 C         5.093014   1.911659   0.637212 C.3        1 UNL1     0.0009
     2 C         6.522187   2.774894   -0.168598 C.2        1 UNL1     -0.0787
     3 C         7.822242   2.727046   -0.803903 C.2        1 UNL1     -0.0649
     4 C         8.676134   3.999483   -1.523714 C.2        1 UNL1     -0.0542
     5 C         9.708148   4.336943   -2.43374 C.2        1 UNL1     0.0115
     6 C         10.876946   3.759545   -3.278635 C.3        1 UNL1     -0.0348
     7 C         9.768774   5.82982   -3.020794 C.2        1 UNL1     0.2441
     8 O         10.555635   6.673451   -2.613777 O.2        1 UNL1     -0.2702
     9 N         9.040444   6.026265   -4.207005 N.am        1 UNL1     -0.2772
     10 C         7.738439   6.366695   -3.920277 C.2        1 UNL1     0.1049
     11 C         6.918574   5.364504   -3.66017 C.2        1 UNL1     0.0801
     12 C         6.353943   7.912451   -2.523443 C.ar        1 UNL1     0.0753
     13 C         5.622188   6.754808   -2.107504 C.ar        1 UNL1     0.0305
     14 C         5.797842   5.461628   -2.764681 C.2        1 UNL1     0.0924
     15 N         7.089001   4.042316   -3.831353 N.pl3        1 UNL1     -0.3170
     16 C         5.832535   3.397921   -3.555124 C.3        1 UNL1     0.1275
     17 N         5.141436   4.319686   -2.580212 N.2        1 UNL1     -0.2557
     18 C         5.008805   3.444319   -4.838486 C.3        1 UNL1     0.0016
     19 C         5.812863   2.799239   -5.956052 C.3        1 UNL1     0.0026
     20 N         6.119223   1.426163   -5.579441 N.3        1 UNL1     -0.3018
     21 C         6.857483   1.275858   -4.323755 C.3        1 UNL1     0.0026
     22 C         6.029551   1.92667   -3.214311 C.3        1 UNL1     0.0016
     23 C         6.617206   0.635282   -6.687216 C.3        1 UNL1     0.0012
     24 C         5.494602   0.359938   -7.699985 C.3        1 UNL1     -0.0339
     25 C         5.588505   1.300054   -8.913006 C.3        1 UNL1     -0.0615
     26 C         5.518947   -1.099297   -8.120487 C.3        1 UNL1     -0.0615
     27 C         6.094436   9.166053   -1.974575 C.ar        1 UNL1     0.1347
     28 C         5.104176   9.392187   -1.035268 C.ar        1 UNL1     0.0342
     29 C         4.429774   8.229748   -0.605058 C.ar        1 UNL1     0.1435
     30 C         4.703705   6.96189   -1.119566 C.ar        1 UNL1     0.0774
     31 O         3.365384   8.298602   0.224001 O.3        1 UNL1     -0.4436
     32 C         2.688624   7.04454   0.050229 C.3        1 UNL1     0.3143
     33 C         3.746799   6.091859   -0.468304 C.2        1 UNL1     0.2504
     34 C         4.601808   10.737382   -0.590098 C.3        1 UNL1     -0.0327
     35 O         2.311157   6.580201   1.352212 O.2        1 UNL1     -0.4528
     36 C         -0.855541   4.547385   0.854447 C.3        1 UNL1     0.0854
     37 C         -1.097219   3.288475   -0.064389 C.3        1 UNL1     0.0236
     38 C         -1.674364   1.998851   0.694241 C.3        1 UNL1     0.1131
     39 C         -0.962862   1.476249   2.006842 C.3        1 UNL1     0.0200
     40 C         0.700775   1.384924   2.086886 C.3        1 UNL1     0.0661
     41 C         1.712918   0.662363   0.93316 C.3        1 UNL1     0.0091
     42 C         3.420592   1.087728   0.415168 C.3        1 UNL1     0.0661
     43 C         7.337002   7.749782   -3.623167 C.2        1 UNL1     0.2131
     44 O         7.724017   8.669214   -4.321451 O.2        1 UNL1     -0.2851
     45 O         6.882697   10.232824   -2.401287 O.3        1 UNL1     -0.5056
     46 O         3.799557   4.887997   -0.350886 O.2        1 UNL1     -0.2836
     47 C         5.468748   1.477958   2.079678 C.3        1 UNL1     -0.0566
     48 O         3.913624   -0.308754   0.491808 O.3        1 UNL1     -0.3909
     49 C         0.916927   0.41759   -0.329369 C.3        1 UNL1     -0.0577
     50 O         1.250638   2.61699   2.50806 O.3        1 UNL1     -0.3910
     51 O         -1.006651   4.336795   2.240177 O.3        1 UNL1     -0.3753
     52 C         -0.020637   3.176491   -1.19283 C.3        1 UNL1     -0.0564
     53 O         -2.220387   0.951652   -0.231804 O.3        1 UNL1     -0.4608
     54 C         -2.387686   -0.37311   0.07633 C.2        1 UNL1     0.3042
     55 O         -1.673497   -1.315192   -0.264632 O.2        1 UNL1     -0.2512
     56 C         -3.558855   -0.637291   0.979262 C.3        1 UNL1     0.0332
     57 C         -1.735766   2.105757   3.257648 C.3        1 UNL1     -0.0567
     58 C         1.632237   7.267327   -1.056995 C.3        1 UNL1     0.0210
     59 C         -1.376467   5.495761   2.985764 C.3        1 UNL1     0.0372
     60 C         0.457011   5.222595   0.663506 C.2        1 UNL1     -0.0208
     61 C         1.333866   5.676993   1.559828 C.2        1 UNL1     0.0882
     62 H         4.582753   2.878513   0.724032 H        1 UNL1     0.0365
     63 H         6.21868   3.818007   -0.057838 H        1 UNL1     0.0576
     64 H         8.31689   1.778532   -1.024704 H        1 UNL1     0.0615
     65 H         8.150769   4.894076   -1.178493 H        1 UNL1     0.0622
     66 H         -1.61688   5.272745   0.534659 H        1 UNL1     0.0645
     67 H         -1.957624   3.576631   -0.693061 H        1 UNL1     0.0362
     68 H         -2.643577   2.400032   1.027712 H        1 UNL1     0.0741
     69 H         -1.265262   0.452492   2.182581 H        1 UNL1     0.0359
     70 H         0.8132   0.717945   2.962991 H        1 UNL1     0.0600
     71 H         1.780083   -0.361939   1.349393 H        1 UNL1     0.0348
     72 H         3.275083   1.560224   1.397457 H        1 UNL1     0.0602
     73 H         0.593154   5.43622   -0.367551 H        1 UNL1     0.0628
     74 H         1.297635   5.452857   2.626453 H        1 UNL1     0.1022
     75 H         10.904939   2.645984   -3.199697 H        1 UNL1     0.0279
     76 H         10.822493   3.916902   -4.353503 H        1 UNL1     0.0279
     77 H         11.865076   4.030156   -2.878548 H        1 UNL1     0.0279
     78 H         9.01995   5.161201   -4.743029 H        1 UNL1     0.1553
     79 H         7.782732   3.64398   -4.437157 H        1 UNL1     0.1484
     80 H         4.059952   2.919714   -4.673459 H        1 UNL1     0.0317
     81 H         4.754506   4.476282   -5.103129 H        1 UNL1     0.0317
     82 H         6.731077   3.363835   -6.175199 H        1 UNL1     0.0428
     83 H         5.207815   2.844646   -6.86209 H        1 UNL1     0.0428
     84 H         7.004872   0.23374   -4.023623 H        1 UNL1     0.0428
     85 H         7.876998   1.6788   -4.398218 H        1 UNL1     0.0428
     86 H         6.532043   1.682389   -2.296805 H        1 UNL1     0.0317
     87 H         5.063766   1.415598   -3.118594 H        1 UNL1     0.0317
     88 H         7.407291   1.20934   -7.188731 H        1 UNL1     0.0429
     89 H         7.072382   -0.299955   -6.336617 H        1 UNL1     0.0429
     90 H         4.524892   0.514973   -7.212297 H        1 UNL1     0.0308
     91 H         6.614049   1.362884   -9.289057 H        1 UNL1     0.0233
     92 H         4.93186   0.959825   -9.717164 H        1 UNL1     0.0233
     93 H         5.27416   2.323177   -8.673754 H        1 UNL1     0.0233
     94 H         4.93041   -1.239085   -9.033679 H        1 UNL1     0.0233
     95 H         6.54608   -1.410548   -8.330446 H        1 UNL1     0.0233
     96 H         5.106428   -1.746107   -7.341107 H        1 UNL1     0.0233
     97 H         3.739973   10.654002   0.065279 H        1 UNL1     0.0280
     98 H         5.358394   11.294502   -0.022251 H        1 UNL1     0.0280
     99 H         4.309812   11.332281   -1.470966 H        1 UNL1     0.0280
     100 H         6.399603   10.998875   -2.657038 H        1 UNL1     0.2922
     101 H         4.581526   1.113124   2.596776 H        1 UNL1     0.0236
     102 H         5.978337   2.258916   2.643066 H        1 UNL1     0.0236
     103 H         6.167508   0.624801   2.086846 H        1 UNL1     0.0236
     104 H         4.228049   -0.460872   1.404479 H        1 UNL1     0.2098
     105 H         0.688408   1.315851   -0.897452 H        1 UNL1     0.0234
     106 H         1.327896   -0.349818   -0.985202 H        1 UNL1     0.0234
     107 H         0.0   -0.0   0.0 H        1 UNL1     0.0234
     108 H         1.102283   3.261608   1.789572 H        1 UNL1     0.2098
     109 H         0.999022   3.104598   -0.789297 H        1 UNL1     0.0234
     110 H         -0.202397   2.343045   -1.879908 H        1 UNL1     0.0234
     111 H         -0.021508   4.061973   -1.842343 H        1 UNL1     0.0234
     112 H         -3.623097   -1.706638   1.202233 H        1 UNL1     0.0342
     113 H         -3.510979   -0.049487   1.894706 H        1 UNL1     0.0342
     114 H         -4.475139   -0.348823   0.445994 H        1 UNL1     0.0342
     115 H         -2.817539   1.921042   3.204389 H        1 UNL1     0.0234
     116 H         -1.387287   1.739078   4.2252 H        1 UNL1     0.0234
     117 H         -1.708858   3.208771   3.281674 H        1 UNL1     0.0234
     118 H         0.704125   7.714985   -0.660489 H        1 UNL1     0.0309
     119 H         2.00064   7.881212   -1.885021 H        1 UNL1     0.0309
     120 H         1.288497   6.328596   -1.505027 H        1 UNL1     0.0309
     121 H         -1.024032   5.356841   4.007452 H        1 UNL1     0.0524
     122 H         -0.905912   6.41294   2.594102 H        1 UNL1     0.0524
     123 H         -2.4555   5.620944   2.975233 H        1 UNL1     0.0524
@<TRIPOS>BOND
     1     1     2    1
     2     1    42    1
     3     2     3    2
     4     3     4    1
     5     4     5    2
     6     5     7    1
     7     6    75    1
     8     6    76    1
     9     6    77    1
    10     7     9   am
    11     9    10    1
    12    10    11    2
    13    10    43    1
    14    11    14    1
    15    11    15    1
    16    12    13   ar
    17    12    27   ar
    18    12    43    1
    19    13    14    1
    20    13    30   ar
    21    14    17    2
    22    15    16    1
    23    16    17    1
    24    16    18    1
    25    16    22    1
    26    18    19    1
    27    19    20    1
    28    20    21    1
    29    21    22    1
    30    23    24    1
    31    23    88    1
    32    23    89    1
    33    24    25    1
    34    24    26    1
    35    24    90    1
    36    25    91    1
    37    25    92    1
    38    25    93    1
    39    26    94    1
    40    26    95    1
    41    26    96    1
    42    27    28   ar
    43    28    29   ar
    44    29    30   ar
    45    29    31    1
    46    30    33    1
    47    31    32    1
    48    32    33    1
    49    32    35    1
    50    34    97    1
    51    34    98    1
    52    34    99    1
    53    35    61    1
    54    36    37    1
    55    36    60    1
    56    37    38    1
    57    38    39    1
    58    39    40    1
    59    40    41    1
    60    41    42    1
    61    45   100    1
    62    47   101    1
    63    47   102    1
    64    47   103    1
    65    48   104    1
    66    49   105    1
    67    49   106    1
    68    49   107    1
    69    50   108    1
    70    51    59    1
    71    52   109    1
    72    52   110    1
    73    52   111    1
    74    53    54    1
    75    54    55    2
    76    54    56    1
    77    56   112    1
    78    56   113    1
    79    56   114    1
    80    57   115    1
    81    57   116    1
    82    57   117    1
    83    58   118    1
    84    58   119    1
    85    58   120    1
    86    59   121    1
    87    59   122    1
    88    59   123    1
    89    60    61    2
    90     1    47    1
    91     1    62    1
    92     2    63    1
    93     3    64    1
    94     4    65    1
    95     5     6    1
    96     7     8    2
    97     9    78    1
    98    15    79    1
    99    18    80    1
   100    18    81    1
   101    19    82    1
   102    19    83    1
   103    20    23    1
   104    21    84    1
   105    21    85    1
   106    22    86    1
   107    22    87    1
   108    27    45    1
   109    28    34    1
   110    32    58    1
   111    33    46    2
   112    36    51    1
   113    36    66    1
   114    37    52    1
   115    37    67    1
   116    38    53    1
   117    38    68    1
   118    42    48    1
   119    42    72    1
   120    43    44    2
   121    60    73    1
   122    61    74    1
   123    39    69    1
   124    39    57    1
   125    40    70    1
   126    40    50    1
   127    41    71    1
   128    41    49    1
