@<TRIPOS>MOLECULE
*****
 123 128 0 0 0
SMALL
GASTEIGER

@<TRIPOS>ATOM
     1 C         2.926167   -2.387454   -3.668695 C.3        1 UNL1     0.0009
     2 C         2.757228   -3.183398   -5.334518 C.2        1 UNL1     -0.0787
     3 C         2.81842   -4.359425   -6.176696 C.2        1 UNL1     -0.0649
     4 C         2.392072   -4.493212   -7.809695 C.2        1 UNL1     -0.0542
     5 C         2.028958   -5.389292   -8.845198 C.2        1 UNL1     0.0115
     6 C         1.92894   -6.891112   -9.22972 C.3        1 UNL1     -0.0348
     7 C         1.313577   -4.80857   -10.159724 C.2        1 UNL1     0.2441
     8 O         1.903722   -4.636139   -11.217326 O.2        1 UNL1     -0.2702
     9 N         -0.089642   -4.757273   -10.09267 N.am        1 UNL1     -0.2772
     10 C         -0.500789   -3.565654   -9.541015 C.2        1 UNL1     0.1049
     11 C         -0.500866   -3.504344   -8.221748 C.2        1 UNL1     0.0801
     12 C         -0.171844   -1.090662   -9.69446 C.ar        1 UNL1     0.0753
     13 C         0.029087   -1.108434   -8.277449 C.ar        1 UNL1     0.0305
     14 C         -0.259532   -2.297357   -7.478568 C.2        1 UNL1     0.0924
     15 N         -0.364322   -4.483775   -7.311475 N.pl3        1 UNL1     -0.3170
     16 C         -0.6099   -3.914341   -6.013134 C.3        1 UNL1     0.1275
     17 N         -0.227386   -2.461727   -6.159145 N.2        1 UNL1     -0.2557
     18 C         -2.118842   -3.934408   -5.788652 C.3        1 UNL1     0.0016
     19 C         -2.615932   -5.36189   -5.952327 C.3        1 UNL1     0.0026
     20 N         -1.931128   -6.209372   -4.98597 N.3        1 UNL1     -0.3018
     21 C         -0.469981   -6.207754   -5.083004 C.3        1 UNL1     0.0026
     22 C         0.008002   -4.764876   -4.911165 C.3        1 UNL1     0.0016
     23 C         -2.539837   -7.517899   -4.852278 C.3        1 UNL1     0.0012
     24 C         -3.364138   -7.858887   -6.103681 C.3        1 UNL1     -0.0339
     25 C         -2.730672   -9.013699   -6.896894 C.3        1 UNL1     -0.0615
     26 C         -4.798758   -8.169508   -5.713604 C.3        1 UNL1     -0.0615
     27 C         -0.010484   0.080059   -10.43168 C.ar        1 UNL1     0.1347
     28 C         0.309791   1.298271   -9.859464 C.ar        1 UNL1     0.0342
     29 C         0.550663   1.246456   -8.470054 C.ar        1 UNL1     0.1435
     30 C         0.42817   0.073531   -7.724089 C.ar        1 UNL1     0.0774
     31 O         0.764869   2.368974   -7.749586 O.3        1 UNL1     -0.4436
     32 C         0.493117   1.986485   -6.392852 C.3        1 UNL1     0.3143
     33 C         0.684057   0.483615   -6.359128 C.2        1 UNL1     0.2504
     34 C         0.253248   2.635782   -10.543545 C.3        1 UNL1     -0.0327
     35 O         1.522732   2.556293   -5.575256 O.2        1 UNL1     -0.4528
     36 C         -0.071912   3.198952   -2.191148 C.3        1 UNL1     0.0854
     37 C         -0.78845   2.184846   -1.218685 C.3        1 UNL1     0.0236
     38 C         -0.196459   2.144106   0.271158 C.3        1 UNL1     0.1131
     39 C         1.359756   1.967436   0.493084 C.3        1 UNL1     0.0200
     40 C         2.220175   0.854977   -0.403885 C.3        1 UNL1     0.0661
     41 C         1.800802   -0.772268   -0.635857 C.3        1 UNL1     0.0091
     42 C         2.080643   -1.880373   -2.070846 C.3        1 UNL1     0.0661
     43 C         -0.645021   -2.340007   -10.340603 C.2        1 UNL1     0.2131
     44 O         -1.215539   -2.367214   -11.416012 O.2        1 UNL1     -0.2851
     45 O         -0.18026   0.001495   -11.81242 O.3        1 UNL1     -0.5056
     46 O         0.998484   -0.215175   -5.421748 O.2        1 UNL1     -0.2836
     47 C         4.424864   -2.230461   -3.295543 C.3        1 UNL1     -0.0566
     48 O         2.595083   -3.002517   -1.249104 O.3        1 UNL1     -0.3909
     49 C         0.368313   -0.974681   -0.194837 C.3        1 UNL1     -0.0577
     50 O         2.651501   1.421554   -1.624816 O.3        1 UNL1     -0.3910
     51 O         1.096723   3.809639   -1.692364 O.3        1 UNL1     -0.3753
     52 C         -1.250873   0.89099   -1.965044 C.3        1 UNL1     -0.0564
     53 O         -1.094315   1.453237   1.255476 O.3        1 UNL1     -0.4608
     54 C         -0.774305   1.162999   2.55597 C.2        1 UNL1     0.3042
     55 O         -1.395047   1.486353   3.567879 O.2        1 UNL1     -0.2512
     56 C         0.450819   0.305115   2.696757 C.3        1 UNL1     0.0332
     57 C         1.989806   3.426362   0.674043 C.3        1 UNL1     -0.0567
     58 C         -0.998565   2.305675   -6.138819 C.3        1 UNL1     0.0210
     59 C         1.392729   5.086803   -2.255479 C.3        1 UNL1     0.0372
     60 C         0.26929   2.650185   -3.531892 C.2        1 UNL1     -0.0208
     61 C         1.388056   2.756114   -4.250144 C.2        1 UNL1     0.0882
     62 H         2.61293   -1.435097   -4.113229 H        1 UNL1     0.0365
     63 H         2.549452   -2.310612   -5.957048 H        1 UNL1     0.0576
     64 H         3.004875   -5.352143   -5.760939 H        1 UNL1     0.0615
     65 H         2.307997   -3.45526   -8.142967 H        1 UNL1     0.0622
     66 H         -0.818685   3.985627   -2.368687 H        1 UNL1     0.0645
     67 H         -1.782238   2.633988   -1.047762 H        1 UNL1     0.0362
     68 H         -0.421048   3.174444   0.586571 H        1 UNL1     0.0741
     69 H         1.53112   1.636586   1.508752 H        1 UNL1     0.0359
     70 H         3.139273   0.785819   0.208924 H        1 UNL1     0.0600
     71 H         2.35411   -1.236112   0.204176 H        1 UNL1     0.0348
     72 H         2.794238   -1.051364   -2.184171 H        1 UNL1     0.0602
     73 H         -0.598042   2.214158   -3.961851 H        1 UNL1     0.0628
     74 H         2.334624   3.13647   -3.864686 H        1 UNL1     0.1022
     75 H         2.935244   -7.37366   -9.190555 H        1 UNL1     0.0279
     76 H         1.340231   -7.523021   -8.568523 H        1 UNL1     0.0279
     77 H         1.656666   -7.042813   -10.284497 H        1 UNL1     0.0279
     78 H         -0.431053   -5.506094   -9.493684 H        1 UNL1     0.1553
     79 H         -0.505838   -5.456292   -7.514252 H        1 UNL1     0.1484
     80 H         -2.336313   -3.547059   -4.785939 H        1 UNL1     0.0317
     81 H         -2.628721   -3.273182   -6.497493 H        1 UNL1     0.0317
     82 H         -2.466107   -5.730096   -6.977943 H        1 UNL1     0.0428
     83 H         -3.694169   -5.353045   -5.789919 H        1 UNL1     0.0428
     84 H         0.022475   -6.788374   -4.29676 H        1 UNL1     0.0428
     85 H         -0.12173   -6.672546   -6.015745 H        1 UNL1     0.0428
     86 H         1.079342   -4.819579   -4.854371 H        1 UNL1     0.0317
     87 H         -0.279819   -4.390167   -3.921292 H        1 UNL1     0.0317
     88 H         -1.736672   -8.25937   -4.750089 H        1 UNL1     0.0429
     89 H         -3.153527   -7.581344   -3.94446 H        1 UNL1     0.0429
     90 H         -3.414482   -6.976179   -6.752145 H        1 UNL1     0.0308
     91 H         -2.106845   -9.642338   -6.254434 H        1 UNL1     0.0233
     92 H         -3.502181   -9.631229   -7.36277 H        1 UNL1     0.0233
     93 H         -2.089848   -8.657852   -7.712708 H        1 UNL1     0.0233
     94 H         -5.3717   -8.477078   -6.595066 H        1 UNL1     0.0233
     95 H         -4.82038   -8.9923   -4.993529 H        1 UNL1     0.0233
     96 H         -5.288985   -7.298694   -5.269389 H        1 UNL1     0.0233
     97 H         -0.767431   2.9793   -10.682973 H        1 UNL1     0.0280
     98 H         0.757344   3.419275   -9.962784 H        1 UNL1     0.0280
     99 H         0.73213   2.564343   -11.53383 H        1 UNL1     0.0280
     100 H         -1.077293   -0.024838   -12.095722 H        1 UNL1     0.2922
     101 H         4.580661   -1.275937   -2.79328 H        1 UNL1     0.0236
     102 H         5.094024   -2.359333   -4.145602 H        1 UNL1     0.0236
     103 H         4.751016   -2.988281   -2.563746 H        1 UNL1     0.0236
     104 H         1.828195   -3.428774   -0.818805 H        1 UNL1     0.2098
     105 H         -0.273003   -1.428684   -0.946107 H        1 UNL1     0.0234
     106 H         0.253963   -1.488161   0.759726 H        1 UNL1     0.0234
     107 H         0.0   0.0   0.0 H        1 UNL1     0.0234
     108 H         3.330348   0.826271   -1.99707 H        1 UNL1     0.2098
     109 H         -1.147506   0.980352   -3.055475 H        1 UNL1     0.0234
     110 H         -0.735185   -0.011983   -1.62088 H        1 UNL1     0.0234
     111 H         -2.31254   0.676702   -1.783687 H        1 UNL1     0.0234
     112 H         0.813625   0.340861   3.728475 H        1 UNL1     0.0342
     113 H         0.270391   -0.721449   2.381392 H        1 UNL1     0.0342
     114 H         1.235886   0.719178   2.049158 H        1 UNL1     0.0342
     115 H         3.036366   3.38102   1.005473 H        1 UNL1     0.0234
     116 H         1.957644   4.038973   -0.22913 H        1 UNL1     0.0234
     117 H         1.531342   4.004873   1.494456 H        1 UNL1     0.0234
     118 H         -1.129114   3.20331   -5.509362 H        1 UNL1     0.0309
     119 H         -1.574846   2.428262   -7.061356 H        1 UNL1     0.0309
     120 H         -1.505008   1.520399   -5.567013 H        1 UNL1     0.0309
     121 H         0.798396   5.828098   -1.721994 H        1 UNL1     0.0524
     122 H         2.453654   5.361922   -2.133887 H        1 UNL1     0.0524
     123 H         1.144569   5.097934   -3.313017 H        1 UNL1     0.0524
@<TRIPOS>BOND
     1     1     2    1
     2     1    42    1
     3     2     3    2
     4     3     4    1
     5     4     5    2
     6     5     7    1
     7     6    75    1
     8     6    76    1
     9     6    77    1
    10     7     9   am
    11     9    10    1
    12    10    11    2
    13    10    43    1
    14    11    14    1
    15    11    15    1
    16    12    13   ar
    17    12    27   ar
    18    12    43    1
    19    13    14    1
    20    13    30   ar
    21    14    17    2
    22    15    16    1
    23    16    17    1
    24    16    18    1
    25    16    22    1
    26    18    19    1
    27    19    20    1
    28    20    21    1
    29    21    22    1
    30    23    24    1
    31    23    88    1
    32    23    89    1
    33    24    25    1
    34    24    26    1
    35    24    90    1
    36    25    91    1
    37    25    92    1
    38    25    93    1
    39    26    94    1
    40    26    95    1
    41    26    96    1
    42    27    28   ar
    43    28    29   ar
    44    29    30   ar
    45    29    31    1
    46    30    33    1
    47    31    32    1
    48    32    33    1
    49    32    35    1
    50    34    97    1
    51    34    98    1
    52    34    99    1
    53    35    61    1
    54    36    37    1
    55    36    60    1
    56    37    38    1
    57    38    39    1
    58    39    40    1
    59    40    41    1
    60    41    42    1
    61    45   100    1
    62    47   101    1
    63    47   102    1
    64    47   103    1
    65    48   104    1
    66    49   105    1
    67    49   106    1
    68    49   107    1
    69    50   108    1
    70    51    59    1
    71    52   109    1
    72    52   110    1
    73    52   111    1
    74    53    54    1
    75    54    55    2
    76    54    56    1
    77    56   112    1
    78    56   113    1
    79    56   114    1
    80    57   115    1
    81    57   116    1
    82    57   117    1
    83    58   118    1
    84    58   119    1
    85    58   120    1
    86    59   121    1
    87    59   122    1
    88    59   123    1
    89    60    61    2
    90     1    47    1
    91     1    62    1
    92     2    63    1
    93     3    64    1
    94     4    65    1
    95     5     6    1
    96     7     8    2
    97     9    78    1
    98    15    79    1
    99    18    80    1
   100    18    81    1
   101    19    82    1
   102    19    83    1
   103    20    23    1
   104    21    84    1
   105    21    85    1
   106    22    86    1
   107    22    87    1
   108    27    45    1
   109    28    34    1
   110    32    58    1
   111    33    46    2
   112    36    51    1
   113    36    66    1
   114    37    52    1
   115    37    67    1
   116    38    53    1
   117    38    68    1
   118    42    48    1
   119    42    72    1
   120    43    44    2
   121    60    73    1
   122    61    74    1
   123    39    69    1
   124    39    57    1
   125    40    70    1
   126    40    50    1
   127    41    71    1
   128    41    49    1
