@<TRIPOS>MOLECULE
*****
 123 128 0 0 0
SMALL
GASTEIGER

@<TRIPOS>ATOM
     1 C         5.118286   0.634091   1.847386 C.3        1 UNL1     0.0009
     2 C         6.864531   1.074719   1.407488 C.2        1 UNL1     -0.0787
     3 C         8.223804   0.675158   1.109536 C.2        1 UNL1     -0.0649
     4 C         9.510421   1.655075   0.6088 C.2        1 UNL1     -0.0542
     5 C         10.77758   1.673666   -0.024478 C.2        1 UNL1     0.0115
     6 C         11.931505   0.777863   -0.552983 C.3        1 UNL1     -0.0348
     7 C         11.341946   3.065097   -0.59228 C.2        1 UNL1     0.2441
     8 O         12.195042   3.723199   -0.012922 O.2        1 UNL1     -0.2702
     9 N         10.984197   3.347   -1.922204 N.am        1 UNL1     -0.2772
     10 C         9.77731   4.006458   -1.965349 C.2        1 UNL1     0.1049
     11 C         8.697434   3.248576   -1.904474 C.2        1 UNL1     0.0801
     12 C         8.530933   5.929801   -0.963036 C.ar        1 UNL1     0.0753
     13 C         7.458835   5.011086   -0.728136 C.ar        1 UNL1     0.0305
     14 C         7.457899   3.67113   -1.310862 C.2        1 UNL1     0.0924
     15 N         8.570397   1.91526   -2.016972 N.pl3        1 UNL1     -0.3170
     16 C         7.164918   1.60904   -2.050346 C.3        1 UNL1     0.1275
     17 N         6.514818   2.73374   -1.282138 N.2        1 UNL1     -0.2557
     18 C         6.703125   1.761585   -3.496437 C.3        1 UNL1     0.0016
     19 C         7.561387   0.868225   -4.377847 C.3        1 UNL1     0.0026
     20 N         7.42103   -0.508989   -3.925509 N.3        1 UNL1     -0.3018
     21 C         7.783241   -0.743767   -2.526205 C.3        1 UNL1     0.0026
     22 C         6.905861   0.160269   -1.658554 C.3        1 UNL1     0.0016
     23 C         7.953172   -1.470081   -4.870903 C.3        1 UNL1     0.0012
     24 C         7.067283   -1.539463   -6.124755 C.3        1 UNL1     -0.0339
     25 C         7.873477   -1.243145   -7.400022 C.3        1 UNL1     -0.0615
     26 C         6.377352   -2.890383   -6.200843 C.3        1 UNL1     -0.0615
     27 C         8.468652   7.243904   -0.505465 C.ar        1 UNL1     0.1347
     28 C         7.373431   7.763413   0.161357 C.ar        1 UNL1     0.0342
     29 C         6.350712   6.827384   0.424151 C.ar        1 UNL1     0.1435
     30 C         6.414962   5.498405   0.003549 C.ar        1 UNL1     0.0774
     31 O         5.172723   7.204561   0.967368 O.3        1 UNL1     -0.4436
     32 C         4.266781   6.138699   0.644754 C.3        1 UNL1     0.3143
     33 C         5.147232   4.928139   0.409041 C.2        1 UNL1     0.2504
     34 C         7.129859   9.216907   0.458218 C.3        1 UNL1     -0.0327
     35 O         3.491553   5.868418   1.819157 O.2        1 UNL1     -0.4528
     36 C         0.12816   4.618366   0.580994 C.3        1 UNL1     0.0854
     37 C         -0.195215   3.392903   -0.357724 C.3        1 UNL1     0.0236
     38 C         -1.235044   2.333146   0.248424 C.3        1 UNL1     0.1131
     39 C         -1.003525   1.747973   1.699714 C.3        1 UNL1     0.0200
     40 C         0.518955   1.269062   2.184625 C.3        1 UNL1     0.0661
     41 C         1.562119   0.248621   1.319686 C.3        1 UNL1     0.0091
     42 C         3.394223   0.218589   1.230841 C.3        1 UNL1     0.0661
     43 C         9.672731   5.462435   -1.787734 C.2        1 UNL1     0.2131
     44 O         10.428008   6.212957   -2.378506 O.2        1 UNL1     -0.2851
     45 O         9.573892   8.06039   -0.73619 O.3        1 UNL1     -0.5056
     46 O         4.871183   3.757354   0.546573 O.2        1 UNL1     -0.2836
     47 C         5.025722   0.22391   3.341764 C.3        1 UNL1     -0.0566
     48 O         3.493914   -1.246405   1.438132 O.3        1 UNL1     -0.3909
     49 C         1.049415   0.113909   -0.096817 C.3        1 UNL1     -0.0577
     50 O         1.242127   2.360868   2.716324 O.3        1 UNL1     -0.3910
     51 O         -0.391097   4.545819   1.889634 O.3        1 UNL1     -0.3753
     52 C         1.053783   2.950404   -1.187872 C.3        1 UNL1     -0.0564
     53 O         -1.790398   1.384729   -0.773541 O.3        1 UNL1     -0.4608
     54 C         -2.347983   0.162334   -0.503763 C.2        1 UNL1     0.3042
     55 O         -1.829919   -0.943849   -0.651437 O.2        1 UNL1     -0.2512
     56 C         -3.726143   0.247367   0.087979 C.3        1 UNL1     0.0332
     57 C         -1.867612   2.628014   2.718073 C.3        1 UNL1     -0.0567
     58 C         3.588643   6.529646   -0.68897 C.3        1 UNL1     0.0210
     59 C         -0.626651   5.808051   2.511849 C.3        1 UNL1     0.0372
     60 C         1.573986   4.946969   0.710494 C.2        1 UNL1     -0.0208
     61 C         2.300515   5.240283   1.789784 C.2        1 UNL1     0.0882
     62 H         4.85767   1.698222   1.798235 H        1 UNL1     0.0365
     63 H         6.811539   2.165174   1.431382 H        1 UNL1     0.0576
     64 H         8.505713   -0.376723   1.024795 H        1 UNL1     0.0615
     65 H         9.157099   2.670603   0.807165 H        1 UNL1     0.0622
     66 H         -0.332892   5.480265   0.078393 H        1 UNL1     0.0645
     67 H         -0.785196   3.83352   -1.180122 H        1 UNL1     0.0362
     68 H         -2.125018   2.975476   0.331371 H        1 UNL1     0.0741
     69 H         -1.582517   0.840225   1.805408 H        1 UNL1     0.0359
     70 H         0.253965   0.656511   3.067587 H        1 UNL1     0.0600
     71 H         1.273979   -0.731036   1.748877 H        1 UNL1     0.0348
     72 H         3.144015   0.778686   2.143531 H        1 UNL1     0.0602
     73 H         1.996725   5.050464   -0.257921 H        1 UNL1     0.0628
     74 H         1.960749   5.105277   2.817193 H        1 UNL1     0.1022
     75 H         11.663563   -0.302195   -0.459622 H        1 UNL1     0.0279
     76 H         12.171424   0.869187   -1.609944 H        1 UNL1     0.0279
     77 H         12.833535   0.832433   0.073967 H        1 UNL1     0.0279
     78 H         10.876466   2.476845   -2.439215 H        1 UNL1     0.1553
     79 H         9.265998   1.322481   -2.43132 H        1 UNL1     0.1484
     80 H         5.64256   1.490543   -3.56355 H        1 UNL1     0.0317
     81 H         6.78169   2.80365   -3.824428 H        1 UNL1     0.0317
     82 H         8.615749   1.181573   -4.371055 H        1 UNL1     0.0428
     83 H         7.216405   0.99377   -5.404627 H        1 UNL1     0.0428
     84 H         7.593338   -1.767779   -2.189832 H        1 UNL1     0.0428
     85 H         8.85886   -0.601169   -2.352921 H        1 UNL1     0.0428
     86 H         7.102503   -0.132749   -0.643931 H        1 UNL1     0.0317
     87 H         5.84899   -0.09841   -1.797133 H        1 UNL1     0.0317
     88 H         8.955668   -1.136534   -5.1693 H        1 UNL1     0.0429
     89 H         8.067225   -2.460322   -4.41135 H        1 UNL1     0.0429
     90 H         6.264516   -0.797573   -6.038865 H        1 UNL1     0.0308
     91 H         8.819193   -1.793266   -7.409515 H        1 UNL1     0.0233
     92 H         7.297434   -1.504771   -8.290715 H        1 UNL1     0.0233
     93 H         8.123024   -0.179742   -7.498691 H        1 UNL1     0.0233
     94 H         5.985342   -3.057988   -7.209839 H        1 UNL1     0.0233
     95 H         7.092245   -3.687989   -5.980126 H        1 UNL1     0.0233
     96 H         5.546799   -2.954753   -5.492319 H        1 UNL1     0.0233
     97 H         6.145324   9.386418   0.883879 H        1 UNL1     0.0280
     98 H         7.845822   9.615723   1.188696 H        1 UNL1     0.0280
     99 H         7.209315   9.802036   -0.472592 H        1 UNL1     0.0280
     100 H         9.369453   8.899902   -1.109078 H        1 UNL1     0.2922
     101 H         3.980066   0.117255   3.629663 H        1 UNL1     0.0236
     102 H         5.565973   0.898063   4.005564 H        1 UNL1     0.0236
     103 H         5.469638   -0.768454   3.527089 H        1 UNL1     0.0236
     104 H         3.537723   -1.405708   2.401291 H        1 UNL1     0.2098
     105 H         1.233311   0.981579   -0.725421 H        1 UNL1     0.0234
     106 H         1.360523   -0.796446   -0.609058 H        1 UNL1     0.0234
     107 H         0.0   -0.0   0.0 H        1 UNL1     0.0234
     108 H         1.430831   2.971172   1.977617 H        1 UNL1     0.2098
     109 H         1.899831   2.665886   -0.546807 H        1 UNL1     0.0234
     110 H         0.83772   2.138852   -1.891038 H        1 UNL1     0.0234
     111 H         1.424589   3.763713   -1.82582 H        1 UNL1     0.0234
     112 H         -4.103628   -0.757975   0.29807 H        1 UNL1     0.0342
     113 H         -3.75033   0.868544   0.98207 H        1 UNL1     0.0342
     114 H         -4.390954   0.708162   -0.655565 H        1 UNL1     0.0342
     115 H         -2.917757   2.702853   2.403775 H        1 UNL1     0.0234
     116 H         -1.857796   2.25652   3.744691 H        1 UNL1     0.0234
     117 H         -1.574826   3.691884   2.73806 H        1 UNL1     0.0234
     118 H         2.734026   7.211566   -0.535276 H        1 UNL1     0.0309
     119 H         4.2812   6.979635   -1.407356 H        1 UNL1     0.0309
     120 H         3.138168   5.671119   -1.198979 H        1 UNL1     0.0309
     121 H         -0.569417   5.660002   3.589885 H        1 UNL1     0.0524
     122 H         0.134672   6.557639   2.238826 H        1 UNL1     0.0524
     123 H         -1.607507   6.185416   2.236875 H        1 UNL1     0.0524
@<TRIPOS>BOND
     1     1     2    1
     2     1    42    1
     3     2     3    2
     4     3     4    1
     5     4     5    2
     6     5     7    1
     7     6    75    1
     8     6    76    1
     9     6    77    1
    10     7     9   am
    11     9    10    1
    12    10    11    2
    13    10    43    1
    14    11    14    1
    15    11    15    1
    16    12    13   ar
    17    12    27   ar
    18    12    43    1
    19    13    14    1
    20    13    30   ar
    21    14    17    2
    22    15    16    1
    23    16    17    1
    24    16    18    1
    25    16    22    1
    26    18    19    1
    27    19    20    1
    28    20    21    1
    29    21    22    1
    30    23    24    1
    31    23    88    1
    32    23    89    1
    33    24    25    1
    34    24    26    1
    35    24    90    1
    36    25    91    1
    37    25    92    1
    38    25    93    1
    39    26    94    1
    40    26    95    1
    41    26    96    1
    42    27    28   ar
    43    28    29   ar
    44    29    30   ar
    45    29    31    1
    46    30    33    1
    47    31    32    1
    48    32    33    1
    49    32    35    1
    50    34    97    1
    51    34    98    1
    52    34    99    1
    53    35    61    1
    54    36    37    1
    55    36    60    1
    56    37    38    1
    57    38    39    1
    58    39    40    1
    59    40    41    1
    60    41    42    1
    61    45   100    1
    62    47   101    1
    63    47   102    1
    64    47   103    1
    65    48   104    1
    66    49   105    1
    67    49   106    1
    68    49   107    1
    69    50   108    1
    70    51    59    1
    71    52   109    1
    72    52   110    1
    73    52   111    1
    74    53    54    1
    75    54    55    2
    76    54    56    1
    77    56   112    1
    78    56   113    1
    79    56   114    1
    80    57   115    1
    81    57   116    1
    82    57   117    1
    83    58   118    1
    84    58   119    1
    85    58   120    1
    86    59   121    1
    87    59   122    1
    88    59   123    1
    89    60    61    2
    90     1    47    1
    91     1    62    1
    92     2    63    1
    93     3    64    1
    94     4    65    1
    95     5     6    1
    96     7     8    2
    97     9    78    1
    98    15    79    1
    99    18    80    1
   100    18    81    1
   101    19    82    1
   102    19    83    1
   103    20    23    1
   104    21    84    1
   105    21    85    1
   106    22    86    1
   107    22    87    1
   108    27    45    1
   109    28    34    1
   110    32    58    1
   111    33    46    2
   112    36    51    1
   113    36    66    1
   114    37    52    1
   115    37    67    1
   116    38    53    1
   117    38    68    1
   118    42    48    1
   119    42    72    1
   120    43    44    2
   121    60    73    1
   122    61    74    1
   123    39    69    1
   124    39    57    1
   125    40    70    1
   126    40    50    1
   127    41    71    1
   128    41    49    1
