@<TRIPOS>MOLECULE
*****
 123 128 0 0 0
SMALL
GASTEIGER

@<TRIPOS>ATOM
     1 C         -2.415416   0.853052   3.234098 C.3        1 UNL1     0.0009
     2 C         -3.953245   1.888195   3.258541 C.2        1 UNL1     -0.0787
     3 C         -4.608818   3.158415   3.488353 C.2        1 UNL1     -0.0649
     4 C         -6.226068   3.56315   3.193315 C.2        1 UNL1     -0.0542
     5 C         -7.137782   4.628184   2.989457 C.2        1 UNL1     0.0115
     6 C         -7.302753   6.171413   3.056929 C.3        1 UNL1     -0.0348
     7 C         -8.561851   4.314053   2.318384 C.2        1 UNL1     0.2441
     8 O         -9.598009   4.232547   2.963565 O.2        1 UNL1     -0.2702
     9 N         -8.582977   4.397458   0.915263 N.am        1 UNL1     -0.2772
     10 C         -8.236498   3.188448   0.357077 C.2        1 UNL1     0.1049
     11 C         -6.942685   2.942727   0.257625 C.2        1 UNL1     0.0801
     12 C         -8.732614   0.739039   0.464767 C.ar        1 UNL1     0.0753
     13 C         -7.319233   0.536931   0.565349 C.ar        1 UNL1     0.0305
     14 C         -6.372212   1.625023   0.332417 C.2        1 UNL1     0.0924
     15 N         -5.892228   3.765431   0.419572 N.pl3        1 UNL1     -0.3170
     16 C         -4.707628   3.047328   0.03059 C.3        1 UNL1     0.1275
     17 N         -5.043285   1.598237   0.28592 N.2        1 UNL1     -0.2557
     18 C         -4.568828   3.189694   -1.482079 C.3        1 UNL1     0.0016
     19 C         -4.549202   4.669248   -1.831542 C.3        1 UNL1     0.0026
     20 N         -3.431544   5.298123   -1.141335 N.3        1 UNL1     -0.3018
     21 C         -3.444496   5.160903   0.316531 C.3        1 UNL1     0.0026
     22 C         -3.459406   3.66699   0.645008 C.3        1 UNL1     0.0016
     23 C         -3.142069   6.630155   -1.633816 C.3        1 UNL1     0.0012
     24 C         -4.000805   7.67347   -0.901817 C.3        1 UNL1     -0.0339
     25 C         -5.458168   7.203909   -0.761588 C.3        1 UNL1     -0.0615
     26 C         -3.386114   7.999271   0.44829 C.3        1 UNL1     -0.0615
     27 C         -9.623309   -0.326791   0.568624 C.ar        1 UNL1     0.1347
     28 C         -9.218827   -1.639594   0.732913 C.ar        1 UNL1     0.0342
     29 C         -7.825434   -1.808378   0.878285 C.ar        1 UNL1     0.1435
     30 C         -6.923569   -0.745577   0.812611 C.ar        1 UNL1     0.0774
     31 O         -7.266535   -3.036936   0.935594 O.3        1 UNL1     -0.4436
     32 C         -5.886031   -2.823117   0.604893 C.3        1 UNL1     0.3143
     33 C         -5.621266   -1.367338   0.931727 C.2        1 UNL1     0.2504
     34 C         -10.093922   -2.854885   0.601097 C.3        1 UNL1     -0.0327
     35 O         -5.103704   -3.604308   1.516461 O.2        1 UNL1     -0.4528
     36 C         -1.946826   -4.549754   -0.367244 C.3        1 UNL1     0.0854
     37 C         -0.878389   -3.614495   -1.053723 C.3        1 UNL1     0.0236
     38 C         0.63253   -3.844164   -0.567802 C.3        1 UNL1     0.1131
     39 C         0.966139   -3.86033   0.978392 C.3        1 UNL1     0.0200
     40 C         0.292587   -2.726658   1.999935 C.3        1 UNL1     0.0661
     41 C         0.27851   -1.04872   1.751062 C.3        1 UNL1     0.0091
     42 C         -0.960016   0.215562   2.23381 C.3        1 UNL1     0.0661
     43 C         -9.214228   2.108507   0.156766 C.2        1 UNL1     0.2131
     44 O         -10.304686   2.34467   -0.330948 O.2        1 UNL1     -0.2851
     45 O         -10.984958   -0.038091   0.505356 O.3        1 UNL1     -0.5056
     46 O         -4.575117   -0.842988   1.242343 O.2        1 UNL1     -0.2836
     47 C         -1.984716   0.492925   4.681436 C.3        1 UNL1     -0.0566
     48 O         0.045457   1.152644   2.790604 O.3        1 UNL1     -0.3909
     49 C         0.662263   -0.765013   0.315883 C.3        1 UNL1     -0.0577
     50 O         -0.971752   -3.157146   2.462373 O.3        1 UNL1     -0.3910
     51 O         -1.477431   -5.340612   0.701233 O.3        1 UNL1     -0.3753
     52 C         -1.451824   -2.188211   -1.339794 C.3        1 UNL1     -0.0564
     53 O         1.654916   -3.210373   -1.465222 O.3        1 UNL1     -0.4608
     54 C         2.937728   -2.888682   -1.106282 C.2        1 UNL1     0.3042
     55 O         3.308352   -2.345186   -0.066529 O.2        1 UNL1     -0.2512
     56 C         3.969297   -3.321861   -2.108747 C.3        1 UNL1     0.0332
     57 C         0.966529   -5.386862   1.455755 C.3        1 UNL1     -0.0567
     58 C         -5.766863   -3.020766   -0.924245 C.3        1 UNL1     0.0210
     59 C         -2.282339   -6.479519   1.002694 C.3        1 UNL1     0.0372
     60 C         -3.170895   -3.855815   0.117797 C.2        1 UNL1     -0.0208
     61 C         -3.832106   -3.973507   1.270053 C.2        1 UNL1     0.0882
     62 H         -3.012017   0.009627   2.866114 H        1 UNL1     0.0365
     63 H         -4.707944   1.137366   3.015324 H        1 UNL1     0.0576
     64 H         -4.041922   4.058582   3.736218 H        1 UNL1     0.0615
     65 H         -6.712323   2.596389   3.03707 H        1 UNL1     0.0622
     66 H         -2.280101   -5.22324   -1.169359 H        1 UNL1     0.0645
     67 H         -0.832051   -3.979305   -2.094553 H        1 UNL1     0.0362
     68 H         0.779997   -4.88021   -0.908953 H        1 UNL1     0.0741
     69 H         2.027454   -3.694713   1.10719 H        1 UNL1     0.0359
     70 H         0.960185   -2.838537   2.875639 H        1 UNL1     0.0600
     71 H         1.207627   -0.76647   2.28401 H        1 UNL1     0.0348
     72 H         -1.153025   -0.657817   2.873553 H        1 UNL1     0.0602
     73 H         -3.580824   -3.277409   -0.672553 H        1 UNL1     0.0628
     74 H         -3.453444   -4.498929   2.147427 H        1 UNL1     0.1022
     75 H         -6.427557   6.637121   3.570918 H        1 UNL1     0.0279
     76 H         -7.323993   6.699075   2.10604 H        1 UNL1     0.0279
     77 H         -8.129642   6.482467   3.712063 H        1 UNL1     0.0279
     78 H         -7.900962   5.085615   0.603216 H        1 UNL1     0.1553
     79 H         -5.957774   4.766108   0.383759 H        1 UNL1     0.1484
     80 H         -3.647845   2.689572   -1.80524 H        1 UNL1     0.0317
     81 H         -5.394891   2.690194   -1.999546 H        1 UNL1     0.0317
     82 H         -5.499461   5.160647   -1.575715 H        1 UNL1     0.0428
     83 H         -4.451448   4.747865   -2.914738 H        1 UNL1     0.0428
     84 H         -2.554818   5.571927   0.80371 H        1 UNL1     0.0428
     85 H         -4.277575   5.714101   0.771799 H        1 UNL1     0.0428
     86 H         -3.334353   3.603443   1.710048 H        1 UNL1     0.0317
     87 H         -2.553249   3.188307   0.254065 H        1 UNL1     0.0317
     88 H         -2.084304   6.845781   -1.433982 H        1 UNL1     0.0429
     89 H         -3.283382   6.692982   -2.720489 H        1 UNL1     0.0429
     90 H         -3.989173   8.610973   -1.470294 H        1 UNL1     0.0308
     91 H         -5.652129   6.319938   -1.376466 H        1 UNL1     0.0233
     92 H         -5.691338   6.973966   0.280702 H        1 UNL1     0.0233
     93 H         -6.176254   7.972041   -1.073294 H        1 UNL1     0.0233
     94 H         -4.000981   7.583001   1.253581 H        1 UNL1     0.0233
     95 H         -2.389159   7.555817   0.521721 H        1 UNL1     0.0233
     96 H         -3.304034   9.079298   0.599201 H        1 UNL1     0.0233
     97 H         -10.800943   -2.938752   1.421048 H        1 UNL1     0.0280
     98 H         -10.697887   -2.832505   -0.315408 H        1 UNL1     0.0280
     99 H         -9.467175   -3.761629   0.591127 H        1 UNL1     0.0280
     100 H         -11.342982   -0.02781   -0.364895 H        1 UNL1     0.2922
     101 H         -1.042147   -0.053637   4.659306 H        1 UNL1     0.0236
     102 H         -2.754415   -0.041477   5.237279 H        1 UNL1     0.0236
     103 H         -1.773533   1.390646   5.286161 H        1 UNL1     0.0236
     104 H         0.930182   0.78974   2.589277 H        1 UNL1     0.2098
     105 H         1.678083   -0.400126   0.186348 H        1 UNL1     0.0234
     106 H         0.462454   -1.58083   -0.3787 H        1 UNL1     0.0234
     107 H         0.0   0.0   -0.0 H        1 UNL1     0.0234
     108 H         -1.56958   -2.385458   2.432907 H        1 UNL1     0.2098
     109 H         -1.784777   -1.682135   -0.422874 H        1 UNL1     0.0234
     110 H         -0.751023   -1.543073   -1.88055 H        1 UNL1     0.0234
     111 H         -2.333509   -2.230031   -1.993115 H        1 UNL1     0.0234
     112 H         4.250064   -4.363777   -1.927295 H        1 UNL1     0.0342
     113 H         3.62864   -3.181801   -3.133529 H        1 UNL1     0.0342
     114 H         4.86564   -2.702176   -1.968299 H        1 UNL1     0.0342
     115 H         1.983401   -5.75222   1.65494 H        1 UNL1     0.0234
     116 H         0.369782   -5.57218   2.351075 H        1 UNL1     0.0234
     117 H         0.635934   -6.092303   0.674089 H        1 UNL1     0.0234
     118 H         -5.048673   -2.315989   -1.378665 H        1 UNL1     0.0309
     119 H         -5.492603   -4.042526   -1.205297 H        1 UNL1     0.0309
     120 H         -6.702503   -2.802297   -1.450512 H        1 UNL1     0.0309
     121 H         -2.151584   -6.704914   2.060738 H        1 UNL1     0.0524
     122 H         -3.355455   -6.289947   0.833809 H        1 UNL1     0.0524
     123 H         -1.974714   -7.327876   0.39792 H        1 UNL1     0.0524
@<TRIPOS>BOND
     1     1     2    1
     2     1    42    1
     3     2     3    2
     4     3     4    1
     5     4     5    2
     6     5     7    1
     7     6    75    1
     8     6    76    1
     9     6    77    1
    10     7     9   am
    11     9    10    1
    12    10    11    2
    13    10    43    1
    14    11    14    1
    15    11    15    1
    16    12    13   ar
    17    12    27   ar
    18    12    43    1
    19    13    14    1
    20    13    30   ar
    21    14    17    2
    22    15    16    1
    23    16    17    1
    24    16    18    1
    25    16    22    1
    26    18    19    1
    27    19    20    1
    28    20    21    1
    29    21    22    1
    30    23    24    1
    31    23    88    1
    32    23    89    1
    33    24    25    1
    34    24    26    1
    35    24    90    1
    36    25    91    1
    37    25    92    1
    38    25    93    1
    39    26    94    1
    40    26    95    1
    41    26    96    1
    42    27    28   ar
    43    28    29   ar
    44    29    30   ar
    45    29    31    1
    46    30    33    1
    47    31    32    1
    48    32    33    1
    49    32    35    1
    50    34    97    1
    51    34    98    1
    52    34    99    1
    53    35    61    1
    54    36    37    1
    55    36    60    1
    56    37    38    1
    57    38    39    1
    58    39    40    1
    59    40    41    1
    60    41    42    1
    61    45   100    1
    62    47   101    1
    63    47   102    1
    64    47   103    1
    65    48   104    1
    66    49   105    1
    67    49   106    1
    68    49   107    1
    69    50   108    1
    70    51    59    1
    71    52   109    1
    72    52   110    1
    73    52   111    1
    74    53    54    1
    75    54    55    2
    76    54    56    1
    77    56   112    1
    78    56   113    1
    79    56   114    1
    80    57   115    1
    81    57   116    1
    82    57   117    1
    83    58   118    1
    84    58   119    1
    85    58   120    1
    86    59   121    1
    87    59   122    1
    88    59   123    1
    89    60    61    2
    90     1    47    1
    91     1    62    1
    92     2    63    1
    93     3    64    1
    94     4    65    1
    95     5     6    1
    96     7     8    2
    97     9    78    1
    98    15    79    1
    99    18    80    1
   100    18    81    1
   101    19    82    1
   102    19    83    1
   103    20    23    1
   104    21    84    1
   105    21    85    1
   106    22    86    1
   107    22    87    1
   108    27    45    1
   109    28    34    1
   110    32    58    1
   111    33    46    2
   112    36    51    1
   113    36    66    1
   114    37    52    1
   115    37    67    1
   116    38    53    1
   117    38    68    1
   118    42    48    1
   119    42    72    1
   120    43    44    2
   121    60    73    1
   122    61    74    1
   123    39    69    1
   124    39    57    1
   125    40    70    1
   126    40    50    1
   127    41    71    1
   128    41    49    1
