@<TRIPOS>MOLECULE
*****
 123 128 0 0 0
SMALL
GASTEIGER

@<TRIPOS>ATOM
     1 C         5.184464   1.668664   0.58007 C.3        1 UNL1     0.0009
     2 C         6.649454   2.447693   -0.246946 C.2        1 UNL1     -0.0787
     3 C         7.941855   2.325924   -0.887974 C.2        1 UNL1     -0.0649
     4 C         8.852815   3.543219   -1.632758 C.2        1 UNL1     -0.0542
     5 C         9.894763   3.814993   -2.553388 C.2        1 UNL1     0.0115
     6 C         11.028898   3.167461   -3.394675 C.3        1 UNL1     -0.0348
     7 C         10.024999   5.29349   -3.165003 C.2        1 UNL1     0.2441
     8 O         10.854614   6.103909   -2.775792 O.2        1 UNL1     -0.2702
     9 N         9.30022   5.506394   -4.350549 N.am        1 UNL1     -0.2772
     10 C         8.018158   5.914861   -4.062807 C.2        1 UNL1     0.1049
     11 C         7.151726   4.95841   -3.78224 C.2        1 UNL1     0.0801
     12 C         6.71926   7.548895   -2.684355 C.ar        1 UNL1     0.0753
     13 C         5.934129   6.435375   -2.24589 C.ar        1 UNL1     0.0305
     14 C         6.042369   5.124761   -2.882779 C.2        1 UNL1     0.0924
     15 N         7.256174   3.626878   -3.932706 N.pl3        1 UNL1     -0.3170
     16 C         5.971293   3.049429   -3.639638 C.3        1 UNL1     0.1275
     17 N         5.331908   4.019512   -2.676389 N.2        1 UNL1     -0.2557
     18 C         5.14331   3.115609   -4.91939 C.3        1 UNL1     0.0016
     19 C         5.908234   2.414011   -6.030355 C.3        1 UNL1     0.0026
     20 N         6.149172   1.033772   -5.632968 N.3        1 UNL1     -0.3018
     21 C         6.886537   0.867574   -4.378759 C.3        1 UNL1     0.0026
     22 C         6.098001   1.575937   -3.275887 C.3        1 UNL1     0.0016
     23 C         6.601309   0.201745   -6.730213 C.3        1 UNL1     0.0012
     24 C         5.459432   -0.037992   -7.730413 C.3        1 UNL1     -0.0339
     25 C         5.513258   0.963358   -8.895942 C.3        1 UNL1     -0.0615
     26 C         5.493072   -1.473664   -8.224877 C.3        1 UNL1     -0.0615
     27 C         6.524696   8.822361   -2.154688 C.ar        1 UNL1     0.1347
     28 C         5.552229   9.111851   -1.214181 C.ar        1 UNL1     0.0342
     29 C         4.824231   7.990955   -0.76166 C.ar        1 UNL1     0.1435
     30 C         5.032705   6.703095   -1.256812 C.ar        1 UNL1     0.0774
     31 O         3.769373   8.125243   0.071555 O.3        1 UNL1     -0.4436
     32 C         3.030988   6.903278   -0.078313 C.3        1 UNL1     0.3143
     33 C         4.038167   5.891625   -0.586606 C.2        1 UNL1     0.2504
     34 C         5.118978   10.487043   -0.788458 C.3        1 UNL1     -0.0327
     35 O         2.638874   6.478959   1.232966 O.2        1 UNL1     -0.4528
     36 C         -0.626465   4.596271   0.78448 C.3        1 UNL1     0.0854
     37 C         -0.934905   3.336165   -0.112471 C.3        1 UNL1     0.0236
     38 C         -1.570068   2.088749   0.670002 C.3        1 UNL1     0.1131
     39 C         -0.877332   1.552976   1.987322 C.3        1 UNL1     0.0200
     40 C         0.780276   1.381416   2.060403 C.3        1 UNL1     0.0661
     41 C         1.749024   0.59165   0.91349 C.3        1 UNL1     0.0091
     42 C         3.472416   0.924342   0.379976 C.3        1 UNL1     0.0661
     43 C         7.686703   7.320567   -3.786254 C.2        1 UNL1     0.2131
     44 O         8.114187   8.208585   -4.501389 O.2        1 UNL1     -0.2851
     45 O         7.361749   9.842185   -2.602729 O.3        1 UNL1     -0.5056
     46 O         4.032579   4.688662   -0.449846 O.2        1 UNL1     -0.2836
     47 C         5.546958   1.240233   2.02749 C.3        1 UNL1     -0.0566
     48 O         3.896892   -0.493243   0.476871 O.3        1 UNL1     -0.3909
     49 C         0.934605   0.36602   -0.340825 C.3        1 UNL1     -0.0577
     50 O         1.392292   2.591609   2.45864 O.3        1 UNL1     -0.3910
     51 O         -0.779577   4.415597   2.174209 O.3        1 UNL1     -0.3753
     52 C         0.12826   3.153405   -1.244384 C.3        1 UNL1     -0.0564
     53 O         -2.172155   1.054891   -0.236065 O.3        1 UNL1     -0.4608
     54 C         -2.421487   -0.249716   0.101222 C.2        1 UNL1     0.3042
     55 O         -1.856889   -1.253865   -0.330927 O.2        1 UNL1     -0.2512
     56 C         -3.473591   -0.406094   1.162041 C.3        1 UNL1     0.0332
     57 C         -1.61112   2.239629   3.231603 C.3        1 UNL1     -0.0567
     58 C         1.980306   7.159854   -1.183648 C.3        1 UNL1     0.0210
     59 C         -1.126454   5.595634   2.897435 C.3        1 UNL1     0.0372
     60 C         0.716444   5.203108   0.5759 C.2        1 UNL1     -0.0208
     61 C         1.619748   5.628243   1.460235 C.2        1 UNL1     0.0882
     62 H         4.722694   2.660661   0.653704 H        1 UNL1     0.0365
     63 H         6.398062   3.506085   -0.151669 H        1 UNL1     0.0576
     64 H         8.388144   1.350861   -1.095788 H        1 UNL1     0.0615
     65 H         8.373935   4.467936   -1.299506 H        1 UNL1     0.0622
     66 H         -1.35322   5.352896   0.456776 H        1 UNL1     0.0645
     67 H         -1.783835   3.656079   -0.741385 H        1 UNL1     0.0362
     68 H         -2.516493   2.542304   1.0018 H        1 UNL1     0.0741
     69 H         -1.22848   0.548241   2.18126 H        1 UNL1     0.0359
     70 H         0.865033   0.723859   2.946684 H        1 UNL1     0.0600
     71 H         1.768375   -0.427908   1.346022 H        1 UNL1     0.0348
     72 H         3.355992   1.419099   1.355156 H        1 UNL1     0.0602
     73 H         0.856837   5.393234   -0.45918 H        1 UNL1     0.0628
     74 H         1.578839   5.423287   2.530542 H        1 UNL1     0.1022
     75 H         11.052936   2.062404   -3.235599 H        1 UNL1     0.0279
     76 H         10.936798   3.246588   -4.475567 H        1 UNL1     0.0279
     77 H         12.0324   3.457892   -3.050679 H        1 UNL1     0.0279
     78 H         9.234232   4.634894   -4.872287 H        1 UNL1     0.1553
     79 H         7.925995   3.185315   -4.535447 H        1 UNL1     0.1484
     80 H         4.170883   2.640913   -4.74102 H        1 UNL1     0.0317
     81 H         4.938319   4.154431   -5.199529 H        1 UNL1     0.0317
     82 H         6.851701   2.929282   -6.263333 H        1 UNL1     0.0428
     83 H         5.300832   2.474521   -6.933932 H        1 UNL1     0.0428
     84 H         6.98446   -0.175574   -4.062428 H        1 UNL1     0.0428
     85 H         7.924111   1.218754   -4.464953 H        1 UNL1     0.0428
     86 H         6.593298   1.322036   -2.357082 H        1 UNL1     0.0317
     87 H         5.108919   1.114475   -3.166953 H        1 UNL1     0.0317
     88 H         7.413476   0.729619   -7.246959 H        1 UNL1     0.0429
     89 H         7.015022   -0.747654   -6.366543 H        1 UNL1     0.0429
     90 H         4.499236   0.078522   -7.21402 H        1 UNL1     0.0308
     91 H         6.470241   0.908598   -9.42347 H        1 UNL1     0.0233
     92 H         4.702342   0.776223   -9.603759 H        1 UNL1     0.0233
     93 H         5.393514   2.000832   -8.561063 H        1 UNL1     0.0233
     94 H         4.809061   -1.597714   -9.071386 H        1 UNL1     0.0233
     95 H         6.500654   -1.727995   -8.565549 H        1 UNL1     0.0233
     96 H         5.199348   -2.173786   -7.437779 H        1 UNL1     0.0233
     97 H         4.311244   10.453546   -0.063425 H        1 UNL1     0.0280
     98 H         5.931772   11.046535   -0.307222 H        1 UNL1     0.0280
     99 H         4.77066   11.053005   -1.667923 H        1 UNL1     0.0280
     100 H         6.912826   10.598176   -2.938243 H        1 UNL1     0.2922
     101 H         4.668062   0.822839   2.518389 H        1 UNL1     0.0236
     102 H         5.999569   2.041272   2.610982 H        1 UNL1     0.0236
     103 H         6.290244   0.425719   2.044419 H        1 UNL1     0.0236
     104 H         4.297953   -0.621426   1.358738 H        1 UNL1     0.2098
     105 H         0.747671   1.265067   -0.922703 H        1 UNL1     0.0234
     106 H         1.303202   -0.431549   -0.985765 H        1 UNL1     0.0234
     107 H         0.0   -0.0   0.0 H        1 UNL1     0.0234
     108 H         1.214532   3.250273   1.759833 H        1 UNL1     0.2098
     109 H         1.14387   3.025677   -0.844466 H        1 UNL1     0.0234
     110 H         -0.104543   2.326654   -1.924111 H        1 UNL1     0.0234
     111 H         0.175688   4.03246   -1.900859 H        1 UNL1     0.0234
     112 H         -3.61998   -1.466792   1.387511 H        1 UNL1     0.0342
     113 H         -3.23286   0.155365   2.063515 H        1 UNL1     0.0342
     114 H         -4.420137   -0.01196   0.767234 H        1 UNL1     0.0342
     115 H         -2.680198   1.988314   3.264795 H        1 UNL1     0.0234
     116 H         -1.181802   1.976842   4.200457 H        1 UNL1     0.0234
     117 H         -1.652958   3.340423   3.164935 H        1 UNL1     0.0234
     118 H         1.079527   7.663014   -0.790668 H        1 UNL1     0.0309
     119 H         2.374738   7.737639   -2.025544 H        1 UNL1     0.0309
     120 H         1.584993   6.232011   -1.611366 H        1 UNL1     0.0309
     121 H         -0.314076   6.310721   2.770756 H        1 UNL1     0.0524
     122 H         -2.046374   6.066742   2.512933 H        1 UNL1     0.0524
     123 H         -1.262   5.364964   3.950294 H        1 UNL1     0.0524
@<TRIPOS>BOND
     1     1     2    1
     2     1    42    1
     3     2     3    2
     4     3     4    1
     5     4     5    2
     6     5     7    1
     7     6    75    1
     8     6    76    1
     9     6    77    1
    10     7     9   am
    11     9    10    1
    12    10    11    2
    13    10    43    1
    14    11    14    1
    15    11    15    1
    16    12    13   ar
    17    12    27   ar
    18    12    43    1
    19    13    14    1
    20    13    30   ar
    21    14    17    2
    22    15    16    1
    23    16    17    1
    24    16    18    1
    25    16    22    1
    26    18    19    1
    27    19    20    1
    28    20    21    1
    29    21    22    1
    30    23    24    1
    31    23    88    1
    32    23    89    1
    33    24    25    1
    34    24    26    1
    35    24    90    1
    36    25    91    1
    37    25    92    1
    38    25    93    1
    39    26    94    1
    40    26    95    1
    41    26    96    1
    42    27    28   ar
    43    28    29   ar
    44    29    30   ar
    45    29    31    1
    46    30    33    1
    47    31    32    1
    48    32    33    1
    49    32    35    1
    50    34    97    1
    51    34    98    1
    52    34    99    1
    53    35    61    1
    54    36    37    1
    55    36    60    1
    56    37    38    1
    57    38    39    1
    58    39    40    1
    59    40    41    1
    60    41    42    1
    61    45   100    1
    62    47   101    1
    63    47   102    1
    64    47   103    1
    65    48   104    1
    66    49   105    1
    67    49   106    1
    68    49   107    1
    69    50   108    1
    70    51    59    1
    71    52   109    1
    72    52   110    1
    73    52   111    1
    74    53    54    1
    75    54    55    2
    76    54    56    1
    77    56   112    1
    78    56   113    1
    79    56   114    1
    80    57   115    1
    81    57   116    1
    82    57   117    1
    83    58   118    1
    84    58   119    1
    85    58   120    1
    86    59   121    1
    87    59   122    1
    88    59   123    1
    89    60    61    2
    90     1    47    1
    91     1    62    1
    92     2    63    1
    93     3    64    1
    94     4    65    1
    95     5     6    1
    96     7     8    2
    97     9    78    1
    98    15    79    1
    99    18    80    1
   100    18    81    1
   101    19    82    1
   102    19    83    1
   103    20    23    1
   104    21    84    1
   105    21    85    1
   106    22    86    1
   107    22    87    1
   108    27    45    1
   109    28    34    1
   110    32    58    1
   111    33    46    2
   112    36    51    1
   113    36    66    1
   114    37    52    1
   115    37    67    1
   116    38    53    1
   117    38    68    1
   118    42    48    1
   119    42    72    1
   120    43    44    2
   121    60    73    1
   122    61    74    1
   123    39    69    1
   124    39    57    1
   125    40    70    1
   126    40    50    1
   127    41    71    1
   128    41    49    1
