@<TRIPOS>MOLECULE
*****
 123 128 0 0 0
SMALL
GASTEIGER

@<TRIPOS>ATOM
     1 C         5.138725   0.538637   1.817404 C.3        1 UNL1     0.0009
     2 C         6.896804   0.915171   1.365276 C.2        1 UNL1     -0.0787
     3 C         8.240926   0.466804   1.068043 C.2        1 UNL1     -0.0649
     4 C         9.55721   1.396662   0.549276 C.2        1 UNL1     -0.0542
     5 C         10.821746   1.364643   -0.088691 C.2        1 UNL1     0.0115
     6 C         11.943312   0.423998   -0.60888 C.3        1 UNL1     -0.0348
     7 C         11.429509   2.728741   -0.677631 C.2        1 UNL1     0.2441
     8 O         12.306199   3.366103   -0.110436 O.2        1 UNL1     -0.2702
     9 N         11.075951   3.004127   -2.010039 N.am        1 UNL1     -0.2772
     10 C         9.891353   3.702518   -2.057993 C.2        1 UNL1     0.1049
     11 C         8.787274   2.981697   -1.982839 C.2        1 UNL1     0.0801
     12 C         8.71324   5.679581   -1.077889 C.ar        1 UNL1     0.0753
     13 C         7.612315   4.800151   -0.826537 C.ar        1 UNL1     0.0305
     14 C         7.564765   3.453121   -1.390717 C.2        1 UNL1     0.0924
     15 N         8.615795   1.651903   -2.076483 N.pl3        1 UNL1     -0.3170
     16 C         7.200842   1.391943   -2.100643 C.3        1 UNL1     0.1275
     17 N         6.591345   2.547939   -1.34572 N.2        1 UNL1     -0.2557
     18 C         6.738558   1.539908   -3.547053 C.3        1 UNL1     0.0016
     19 C         7.563293   0.606666   -4.419097 C.3        1 UNL1     0.0026
     20 N         7.379312   -0.758836   -3.947309 N.3        1 UNL1     -0.3018
     21 C         7.739164   -0.986325   -2.546194 C.3        1 UNL1     0.0026
     22 C         6.895619   -0.041969   -1.687988 C.3        1 UNL1     0.0016
     23 C         7.875613   -1.749847   -4.881239 C.3        1 UNL1     0.0012
     24 C         6.980401   -1.81008   -6.128927 C.3        1 UNL1     -0.0339
     25 C         7.538042   -0.935509   -7.263925 C.3        1 UNL1     -0.0615
     26 C         6.799888   -3.251791   -6.571264 C.3        1 UNL1     -0.0615
     27 C         8.696252   7.001158   -0.63827 C.ar        1 UNL1     0.1347
     28 C         7.621475   7.565698   0.025205 C.ar        1 UNL1     0.0342
     29 C         6.569442   6.667713   0.304512 C.ar        1 UNL1     0.1435
     30 C         6.588054   5.33171   -0.097943 C.ar        1 UNL1     0.0774
     31 O         5.406744   7.091063   0.846651 O.3        1 UNL1     -0.4436
     32 C         4.464789   6.051461   0.541987 C.3        1 UNL1     0.3143
     33 C         5.303804   4.809312   0.319871 C.2        1 UNL1     0.2504
     34 C         7.42726   9.03038   0.302851 C.3        1 UNL1     -0.0327
     35 O         3.68576   5.823064   1.722749 O.2        1 UNL1     -0.4528
     36 C         0.277965   4.668215   0.513889 C.3        1 UNL1     0.0854
     37 C         -0.089486   3.441409   -0.406682 C.3        1 UNL1     0.0236
     38 C         -1.161334   2.425034   0.217712 C.3        1 UNL1     0.1131
     39 C         -0.943473   1.852411   1.676104 C.3        1 UNL1     0.0200
     40 C         0.564277   1.330044   2.16217 C.3        1 UNL1     0.0661
     41 C         1.569679   0.263907   1.307693 C.3        1 UNL1     0.0091
     42 C         3.39942   0.172039   1.21277 C.3        1 UNL1     0.0661
     43 C         9.835659   5.163451   -1.900109 C.2        1 UNL1     0.2131
     44 O         10.612955   5.880417   -2.503853 O.2        1 UNL1     -0.2851
     45 O         9.826939   7.777384   -0.884156 O.3        1 UNL1     -0.5056
     46 O         4.989768   3.650296   0.474519 O.2        1 UNL1     -0.2836
     47 C         5.038639   0.152209   3.317617 C.3        1 UNL1     -0.0566
     48 O         3.451471   -1.292482   1.439894 O.3        1 UNL1     -0.3909
     49 C         1.047137   0.126889   -0.104989 C.3        1 UNL1     -0.0577
     50 O         1.325258   2.404481   2.676189 O.3        1 UNL1     -0.3910
     51 O         -0.238164   4.630788   1.82524 O.3        1 UNL1     -0.3753
     52 C         1.140874   2.946507   -1.235075 C.3        1 UNL1     -0.0564
     53 O         -1.751814   1.481638   -0.789097 O.3        1 UNL1     -0.4608
     54 C         -2.366508   0.291746   -0.498862 C.2        1 UNL1     0.3042
     55 O         -1.961351   -0.840828   -0.757638 O.2        1 UNL1     -0.2512
     56 C         -3.647283   0.448414   0.270413 C.3        1 UNL1     0.0332
     57 C         -1.773923   2.774408   2.685287 C.3        1 UNL1     -0.0567
     58 C         3.794609   6.446372   -0.794588 C.3        1 UNL1     0.0210
     59 C         -0.466346   5.909248   2.41629 C.3        1 UNL1     0.0372
     60 C         1.734367   4.950522   0.633713 C.2        1 UNL1     -0.0208
     61 C         2.474507   5.234353   1.70627 C.2        1 UNL1     0.0882
     62 H         4.913224   1.61004   1.754505 H        1 UNL1     0.0365
     63 H         6.879973   2.007007   1.374315 H        1 UNL1     0.0576
     64 H         8.487579   -0.594892   0.996819 H        1 UNL1     0.0615
     65 H         9.238437   2.425945   0.734866 H        1 UNL1     0.0622
     66 H         -0.15636   5.537951   0.001086 H        1 UNL1     0.0645
     67 H         -0.66787   3.890031   -1.232981 H        1 UNL1     0.0362
     68 H         -2.029256   3.097543   0.294948 H        1 UNL1     0.0741
     69 H         -1.551719   0.965854   1.796363 H        1 UNL1     0.0359
     70 H         0.282726   0.738725   3.054432 H        1 UNL1     0.0600
     71 H         1.251042   -0.699718   1.751376 H        1 UNL1     0.0348
     72 H         3.171513   0.752533   2.11853 H        1 UNL1     0.0602
     73 H         2.156416   5.026721   -0.337531 H        1 UNL1     0.0628
     74 H         2.13458   5.124722   2.736642 H        1 UNL1     0.1022
     75 H         11.674422   -0.644514   -0.427178 H        1 UNL1     0.0279
     76 H         12.131317   0.439351   -1.680089 H        1 UNL1     0.0279
     77 H         12.875442   0.514091   -0.032062 H        1 UNL1     0.0279
     78 H         10.937454   2.131028   -2.514613 H        1 UNL1     0.1553
     79 H         9.289763   1.030817   -2.485081 H        1 UNL1     0.1484
     80 H         5.669355   1.303227   -3.606658 H        1 UNL1     0.0317
     81 H         6.850204   2.574222   -3.889664 H        1 UNL1     0.0317
     82 H         8.627453   0.885009   -4.420369 H        1 UNL1     0.0428
     83 H         7.218541   0.729515   -5.44628 H        1 UNL1     0.0428
     84 H         7.516872   -1.998797   -2.195056 H        1 UNL1     0.0428
     85 H         8.819593   -0.877052   -2.378711 H        1 UNL1     0.0428
     86 H         7.08653   -0.327439   -0.670123 H        1 UNL1     0.0317
     87 H         5.83023   -0.267395   -1.819235 H        1 UNL1     0.0317
     88 H         8.88615   -1.452098   -5.190197 H        1 UNL1     0.0429
     89 H         7.961662   -2.736282   -4.407619 H        1 UNL1     0.0429
     90 H         5.978226   -1.448586   -5.869735 H        1 UNL1     0.0308
     91 H         8.553324   -1.23824   -7.537161 H        1 UNL1     0.0233
     92 H         6.896836   -0.99308   -8.146619 H        1 UNL1     0.0233
     93 H         7.585455   0.12517   -6.989069 H        1 UNL1     0.0233
     94 H         6.326532   -3.287546   -7.558427 H        1 UNL1     0.0233
     95 H         7.773422   -3.744316   -6.646179 H        1 UNL1     0.0233
     96 H         6.175216   -3.809711   -5.868072 H        1 UNL1     0.0233
     97 H         6.48497   9.228473   0.804926 H        1 UNL1     0.0280
     98 H         8.208585   9.434191   0.959907 H        1 UNL1     0.0280
     99 H         7.437397   9.590476   -0.64651 H        1 UNL1     0.0280
     100 H         10.632696   7.405792   -0.570632 H        1 UNL1     0.2922
     101 H         3.996799   -0.026975   3.582413 H        1 UNL1     0.0236
     102 H         5.509866   0.877989   3.979563 H        1 UNL1     0.0236
     103 H         5.550425   -0.800166   3.534987 H        1 UNL1     0.0236
     104 H         3.593915   -1.437854   2.395691 H        1 UNL1     0.2098
     105 H         1.215401   0.998452   -0.732586 H        1 UNL1     0.0234
     106 H         1.365062   -0.778214   -0.622328 H        1 UNL1     0.0234
     107 H         0.0   -0.0   0.0 H        1 UNL1     0.0234
     108 H         1.475051   3.031125   1.942264 H        1 UNL1     0.2098
     109 H         1.97283   2.625484   -0.592809 H        1 UNL1     0.0234
     110 H         0.891489   2.145534   -1.939342 H        1 UNL1     0.0234
     111 H         1.547295   3.743714   -1.87165 H        1 UNL1     0.0234
     112 H         -4.083114   -0.534868   0.471791 H        1 UNL1     0.0342
     113 H         -3.504894   1.009052   1.193047 H        1 UNL1     0.0342
     114 H         -4.35612   1.009495   -0.354009 H        1 UNL1     0.0342
     115 H         -2.846949   2.77496   2.449063 H        1 UNL1     0.0234
     116 H         -1.668805   2.490902   3.734393 H        1 UNL1     0.0234
     117 H         -1.535789   3.84841   2.597237 H        1 UNL1     0.0234
     118 H         2.966627   7.161835   -0.647732 H        1 UNL1     0.0309
     119 H         4.499572   6.859076   -1.523221 H        1 UNL1     0.0309
     120 H         3.310009   5.597266   -1.288844 H        1 UNL1     0.0309
     121 H         0.494727   6.418606   2.481467 H        1 UNL1     0.0524
     122 H         -1.135068   6.538924   1.80608 H        1 UNL1     0.0524
     123 H         -0.897357   5.793884   3.406752 H        1 UNL1     0.0524
@<TRIPOS>BOND
     1     1     2    1
     2     1    42    1
     3     2     3    2
     4     3     4    1
     5     4     5    2
     6     5     7    1
     7     6    75    1
     8     6    76    1
     9     6    77    1
    10     7     9   am
    11     9    10    1
    12    10    11    2
    13    10    43    1
    14    11    14    1
    15    11    15    1
    16    12    13   ar
    17    12    27   ar
    18    12    43    1
    19    13    14    1
    20    13    30   ar
    21    14    17    2
    22    15    16    1
    23    16    17    1
    24    16    18    1
    25    16    22    1
    26    18    19    1
    27    19    20    1
    28    20    21    1
    29    21    22    1
    30    23    24    1
    31    23    88    1
    32    23    89    1
    33    24    25    1
    34    24    26    1
    35    24    90    1
    36    25    91    1
    37    25    92    1
    38    25    93    1
    39    26    94    1
    40    26    95    1
    41    26    96    1
    42    27    28   ar
    43    28    29   ar
    44    29    30   ar
    45    29    31    1
    46    30    33    1
    47    31    32    1
    48    32    33    1
    49    32    35    1
    50    34    97    1
    51    34    98    1
    52    34    99    1
    53    35    61    1
    54    36    37    1
    55    36    60    1
    56    37    38    1
    57    38    39    1
    58    39    40    1
    59    40    41    1
    60    41    42    1
    61    45   100    1
    62    47   101    1
    63    47   102    1
    64    47   103    1
    65    48   104    1
    66    49   105    1
    67    49   106    1
    68    49   107    1
    69    50   108    1
    70    51    59    1
    71    52   109    1
    72    52   110    1
    73    52   111    1
    74    53    54    1
    75    54    55    2
    76    54    56    1
    77    56   112    1
    78    56   113    1
    79    56   114    1
    80    57   115    1
    81    57   116    1
    82    57   117    1
    83    58   118    1
    84    58   119    1
    85    58   120    1
    86    59   121    1
    87    59   122    1
    88    59   123    1
    89    60    61    2
    90     1    47    1
    91     1    62    1
    92     2    63    1
    93     3    64    1
    94     4    65    1
    95     5     6    1
    96     7     8    2
    97     9    78    1
    98    15    79    1
    99    18    80    1
   100    18    81    1
   101    19    82    1
   102    19    83    1
   103    20    23    1
   104    21    84    1
   105    21    85    1
   106    22    86    1
   107    22    87    1
   108    27    45    1
   109    28    34    1
   110    32    58    1
   111    33    46    2
   112    36    51    1
   113    36    66    1
   114    37    52    1
   115    37    67    1
   116    38    53    1
   117    38    68    1
   118    42    48    1
   119    42    72    1
   120    43    44    2
   121    60    73    1
   122    61    74    1
   123    39    69    1
   124    39    57    1
   125    40    70    1
   126    40    50    1
   127    41    71    1
   128    41    49    1
