@<TRIPOS>MOLECULE
*****
 123 128 0 0 0
SMALL
GASTEIGER

@<TRIPOS>ATOM
     1 C         -3.189895   3.682047   0.244608 C.3        1 UNL1     0.0009
     2 C         -4.954777   4.000093   0.714792 C.2        1 UNL1     -0.0787
     3 C         -6.365586   3.971724   0.390972 C.2        1 UNL1     -0.0649
     4 C         -7.673252   4.331688   1.404281 C.2        1 UNL1     -0.0542
     5 C         -9.065625   4.165639   1.606278 C.2        1 UNL1     0.0115
     6 C         -10.380975   3.669697   0.945053 C.3        1 UNL1     -0.0348
     7 C         -9.675856   4.431568   3.067061 C.2        1 UNL1     0.2441
     8 O         -10.277048   5.455703   3.36073 O.2        1 UNL1     -0.2702
     9 N         -9.70261   3.305493   3.908126 N.am        1 UNL1     -0.2772
     10 C         -8.519027   3.195572   4.601214 C.2        1 UNL1     0.1049
     11 C         -7.521759   2.612413   3.96121 C.2        1 UNL1     0.0801
     12 C         -6.908373   4.505702   5.996451 C.ar        1 UNL1     0.0753
     13 C         -5.878694   4.006087   5.136943 C.ar        1 UNL1     0.0305
     14 C         -6.137606   2.93908   4.17283 C.2        1 UNL1     0.0924
     15 N         -7.523002   1.914889   2.812304 N.pl3        1 UNL1     -0.3170
     16 C         -6.212043   1.34699   2.641622 C.3        1 UNL1     0.1275
     17 N         -5.292325   2.292287   3.37528 N.2        1 UNL1     -0.2557
     18 C         -6.182027   0.0362   3.421768 C.3        1 UNL1     0.0016
     19 C         -7.317782   -0.847683   2.931462 C.3        1 UNL1     0.0026
     20 N         -7.144848   -1.083051   1.504674 N.3        1 UNL1     -0.3018
     21 C         -7.098985   0.123784   0.676535 C.3        1 UNL1     0.0026
     22 C         -5.94827   0.994804   1.183563 C.3        1 UNL1     0.0016
     23 C         -7.992563   -2.145553   1.00157 C.3        1 UNL1     0.0012
     24 C         -7.516798   -3.508917   1.527536 C.3        1 UNL1     -0.0339
     25 C         -7.545131   -3.559971   3.063976 C.3        1 UNL1     -0.0615
     26 C         -8.349095   -4.622391   0.915787 C.3        1 UNL1     -0.0615
     27 C         -6.627303   5.435967   6.994312 C.ar        1 UNL1     0.1347
     28 C         -5.353036   5.908527   7.253119 C.ar        1 UNL1     0.0342
     29 C         -4.363526   5.439916   6.362929 C.ar        1 UNL1     0.1435
     30 C         -4.636715   4.535652   5.335849 C.ar        1 UNL1     0.0774
     31 O         -3.055831   5.722095   6.550852 O.3        1 UNL1     -0.4436
     32 C         -2.356911   4.730354   5.783498 C.3        1 UNL1     0.3143
     33 C         -3.347231   4.272753   4.731794 C.2        1 UNL1     0.2504
     34 C         -4.936357   6.707017   8.456818 C.3        1 UNL1     -0.0327
     35 O         -1.29342   5.397619   5.092848 O.2        1 UNL1     -0.4528
     36 C         1.471798   2.826044   4.707279 C.3        1 UNL1     0.0854
     37 C         1.424675   1.408038   4.018395 C.3        1 UNL1     0.0236
     38 C         2.522136   1.176688   2.872183 C.3        1 UNL1     0.1131
     39 C         2.684273   2.241813   1.713956 C.3        1 UNL1     0.0200
     40 C         1.340259   2.899124   0.976388 C.3        1 UNL1     0.0661
     41 C         0.024289   2.029526   0.352184 C.3        1 UNL1     0.0091
     42 C         -1.752016   2.47471   0.242854 C.3        1 UNL1     0.0661
     43 C         -8.269536   3.933324   5.848543 C.2        1 UNL1     0.2131
     44 O         -9.111777   3.96411   6.727417 O.2        1 UNL1     -0.2851
     45 O         -7.694275   5.905584   7.757508 O.3        1 UNL1     -0.5056
     46 O         -3.122548   3.815052   3.633668 O.2        1 UNL1     -0.2836
     47 C         -2.694158   4.76368   -0.752537 C.3        1 UNL1     -0.0566
     48 O         -1.885404   2.061953   -1.175228 O.3        1 UNL1     -0.3909
     49 C         0.092172   0.607773   0.86356 C.3        1 UNL1     -0.0577
     50 O         0.87837   4.027944   1.690636 O.3        1 UNL1     -0.3910
     51 O         2.343394   3.766741   4.121752 O.3        1 UNL1     -0.3753
     52 C         -0.038706   0.872755   3.888255 C.3        1 UNL1     -0.0564
     53 O         2.690808   -0.263184   2.484054 O.3        1 UNL1     -0.4608
     54 C         3.888045   -0.891699   2.26152 C.2        1 UNL1     0.3042
     55 O         4.68799   -1.294948   3.104916 O.2        1 UNL1     -0.2512
     56 C         4.176904   -1.138085   0.808053 C.3        1 UNL1     0.0332
     57 C         3.864557   3.23586   2.13464 C.3        1 UNL1     -0.0567
     58 C         -2.071678   3.553739   6.745656 C.3        1 UNL1     0.0210
     59 C         3.322369   3.211893   3.244474 C.3        1 UNL1     0.0372
     60 C         0.151823   3.497645   4.85486 C.2        1 UNL1     -0.0208
     61 C         -0.207606   4.759504   4.615557 C.2        1 UNL1     0.0882
     62 H         -2.883876   4.01401   1.24404 H        1 UNL1     0.0365
     63 H         -4.823864   4.466389   1.693516 H        1 UNL1     0.0576
     64 H         -6.730077   3.536276   -0.542109 H        1 UNL1     0.0615
     65 H         -7.209981   4.828424   2.261087 H        1 UNL1     0.0622
     66 H         1.823492   2.624991   5.729011 H        1 UNL1     0.0645
     67 H         1.777965   0.71683   4.803237 H        1 UNL1     0.0362
     68 H         3.438833   1.260094   3.475699 H        1 UNL1     0.0741
     69 H         3.206496   1.779739   0.886804 H        1 UNL1     0.0359
     70 H         1.808947   3.320319   0.066451 H        1 UNL1     0.0600
     71 H         0.358273   1.899375   -0.695896 H        1 UNL1     0.0348
     72 H         -1.209864   3.42173   0.379011 H        1 UNL1     0.0602
     73 H         -0.526543   2.833801   5.330653 H        1 UNL1     0.0628
     74 H         0.406629   5.484823   4.080893 H        1 UNL1     0.1022
     75 H         -10.477837   4.078263   -0.089706 H        1 UNL1     0.0279
     76 H         -10.46818   2.597723   0.782767 H        1 UNL1     0.0279
     77 H         -11.280286   4.081701   1.425878 H        1 UNL1     0.0279
     78 H         -9.808859   2.46245   3.347709 H        1 UNL1     0.1553
     79 H         -8.347339   1.511447   2.40655 H        1 UNL1     0.1484
     80 H         -5.207681   -0.445214   3.274602 H        1 UNL1     0.0317
     81 H         -6.28235   0.218476   4.497111 H        1 UNL1     0.0317
     82 H         -8.30092   -0.401937   3.142796 H        1 UNL1     0.0428
     83 H         -7.278999   -1.776088   3.502085 H        1 UNL1     0.0428
     84 H         -6.888753   -0.076123   -0.378761 H        1 UNL1     0.0428
     85 H         -8.065434   0.646347   0.66171 H        1 UNL1     0.0428
     86 H         -5.860299   1.798695   0.476451 H        1 UNL1     0.0317
     87 H         -4.997421   0.458382   1.077577 H        1 UNL1     0.0317
     88 H         -9.013684   -1.968222   1.36373 H        1 UNL1     0.0429
     89 H         -8.034275   -2.136879   -0.095224 H        1 UNL1     0.0429
     90 H         -6.488075   -3.684547   1.191237 H        1 UNL1     0.0308
     91 H         -8.4833   -3.157918   3.45805 H        1 UNL1     0.0233
     92 H         -7.417231   -4.585312   3.418836 H        1 UNL1     0.0233
     93 H         -6.734087   -2.976453   3.516247 H        1 UNL1     0.0233
     94 H         -9.376829   -4.576003   1.291882 H        1 UNL1     0.0233
     95 H         -8.382584   -4.509662   -0.171472 H        1 UNL1     0.0233
     96 H         -7.937263   -5.60657   1.156109 H        1 UNL1     0.0233
     97 H         -4.151152   6.213206   9.021473 H        1 UNL1     0.0280
     98 H         -4.535273   7.691297   8.181897 H        1 UNL1     0.0280
     99 H         -5.80304   6.850264   9.122728 H        1 UNL1     0.0280
     100 H         -8.436903   6.194042   7.256591 H        1 UNL1     0.2922
     101 H         -2.042862   5.468702   -0.236384 H        1 UNL1     0.0236
     102 H         -3.505445   5.265938   -1.278401 H        1 UNL1     0.0236
     103 H         -2.065412   4.334366   -1.550385 H        1 UNL1     0.0236
     104 H         -1.838831   2.869759   -1.723179 H        1 UNL1     0.2098
     105 H         1.028249   0.350736   1.352951 H        1 UNL1     0.0234
     106 H         -0.752875   0.305433   1.481956 H        1 UNL1     0.0234
     107 H         0.0   -0.0   0.0 H        1 UNL1     0.0234
     108 H         0.437655   4.617163   1.048484 H        1 UNL1     0.2098
     109 H         -0.78212   1.681313   3.924044 H        1 UNL1     0.0234
     110 H         -0.197554   0.268511   2.988588 H        1 UNL1     0.0234
     111 H         -0.296632   0.195115   4.713013 H        1 UNL1     0.0234
     112 H         5.133194   -1.659204   0.701798 H        1 UNL1     0.0342
     113 H         3.375157   -1.689206   0.318858 H        1 UNL1     0.0342
     114 H         4.266179   -0.164775   0.306195 H        1 UNL1     0.0342
     115 H         4.218036   3.040822   3.156502 H        1 UNL1     0.0234
     116 H         4.733039   3.19854   1.474039 H        1 UNL1     0.0234
     117 H         3.544473   4.288794   2.217209 H        1 UNL1     0.0234
     118 H         -2.991711   3.181074   7.229045 H        1 UNL1     0.0309
     119 H         -1.557701   2.717491   6.261177 H        1 UNL1     0.0309
     120 H         -1.442103   3.846735   7.592943 H        1 UNL1     0.0309
     121 H         4.173074   3.892595   3.227053 H        1 UNL1     0.0524
     122 H         3.688579   2.231725   3.592609 H        1 UNL1     0.0524
     123 H         2.911282   3.100046   2.245178 H        1 UNL1     0.0524
@<TRIPOS>BOND
     1     1     2    1
     2     1    42    1
     3     2     3    2
     4     3     4    1
     5     4     5    2
     6     5     7    1
     7     6    75    1
     8     6    76    1
     9     6    77    1
    10     7     9   am
    11     9    10    1
    12    10    11    2
    13    10    43    1
    14    11    14    1
    15    11    15    1
    16    12    13   ar
    17    12    27   ar
    18    12    43    1
    19    13    14    1
    20    13    30   ar
    21    14    17    2
    22    15    16    1
    23    16    17    1
    24    16    18    1
    25    16    22    1
    26    18    19    1
    27    19    20    1
    28    20    21    1
    29    21    22    1
    30    23    24    1
    31    23    88    1
    32    23    89    1
    33    24    25    1
    34    24    26    1
    35    24    90    1
    36    25    91    1
    37    25    92    1
    38    25    93    1
    39    26    94    1
    40    26    95    1
    41    26    96    1
    42    27    28   ar
    43    28    29   ar
    44    29    30   ar
    45    29    31    1
    46    30    33    1
    47    31    32    1
    48    32    33    1
    49    32    35    1
    50    34    97    1
    51    34    98    1
    52    34    99    1
    53    35    61    1
    54    36    37    1
    55    36    60    1
    56    37    38    1
    57    38    39    1
    58    39    40    1
    59    40    41    1
    60    41    42    1
    61    45   100    1
    62    47   101    1
    63    47   102    1
    64    47   103    1
    65    48   104    1
    66    49   105    1
    67    49   106    1
    68    49   107    1
    69    50   108    1
    70    51    59    1
    71    52   109    1
    72    52   110    1
    73    52   111    1
    74    53    54    1
    75    54    55    2
    76    54    56    1
    77    56   112    1
    78    56   113    1
    79    56   114    1
    80    57   115    1
    81    57   116    1
    82    57   117    1
    83    58   118    1
    84    58   119    1
    85    58   120    1
    86    59   121    1
    87    59   122    1
    88    59   123    1
    89    60    61    2
    90     1    47    1
    91     1    62    1
    92     2    63    1
    93     3    64    1
    94     4    65    1
    95     5     6    1
    96     7     8    2
    97     9    78    1
    98    15    79    1
    99    18    80    1
   100    18    81    1
   101    19    82    1
   102    19    83    1
   103    20    23    1
   104    21    84    1
   105    21    85    1
   106    22    86    1
   107    22    87    1
   108    27    45    1
   109    28    34    1
   110    32    58    1
   111    33    46    2
   112    36    51    1
   113    36    66    1
   114    37    52    1
   115    37    67    1
   116    38    53    1
   117    38    68    1
   118    42    48    1
   119    42    72    1
   120    43    44    2
   121    60    73    1
   122    61    74    1
   123    39    69    1
   124    39    57    1
   125    40    70    1
   126    40    50    1
   127    41    71    1
   128    41    49    1
