@<TRIPOS>MOLECULE
*****
 123 128 0 0 0
SMALL
GASTEIGER

@<TRIPOS>ATOM
     1 C         3.531487   -1.295184   -1.699795 C.3        1 UNL1     0.0009
     2 C         4.752954   -0.306521   -2.683462 C.2        1 UNL1     -0.0787
     3 C         5.26144   0.151074   -3.95943 C.2        1 UNL1     -0.0649
     4 C         6.492074   1.278032   -4.245545 C.2        1 UNL1     -0.0542
     5 C         7.054873   2.166767   -5.194484 C.2        1 UNL1     0.0115
     6 C         7.020897   2.598406   -6.686415 C.3        1 UNL1     -0.0348
     7 C         8.041314   3.325714   -4.683833 C.2        1 UNL1     0.2441
     8 O         9.258144   3.258654   -4.790388 O.2        1 UNL1     -0.2702
     9 N         7.405955   4.533106   -4.345198 N.am        1 UNL1     -0.2772
     10 C         7.010306   4.514416   -3.027459 C.2        1 UNL1     0.1049
     11 C         5.861535   3.914532   -2.773122 C.2        1 UNL1     0.0801
     12 C         7.82847   4.011473   -0.717699 C.ar        1 UNL1     0.0753
     13 C         6.660338   3.198508   -0.565507 C.ar        1 UNL1     0.0305
     14 C         5.573764   3.229871   -1.541943 C.2        1 UNL1     0.0924
     15 N         4.901013   3.495363   -3.614681 N.pl3        1 UNL1     -0.3170
     16 C         3.779815   3.064838   -2.822333 C.3        1 UNL1     0.1275
     17 N         4.388632   2.626937   -1.512635 N.2        1 UNL1     -0.2557
     18 C         2.945772   4.303231   -2.508554 C.3        1 UNL1     0.0016
     19 C         2.56734   4.979009   -3.816875 C.3        1 UNL1     0.0026
     20 N         1.816057   4.033884   -4.631334 N.3        1 UNL1     -0.3018
     21 C         2.513742   2.782644   -4.934652 C.3        1 UNL1     0.0026
     22 C         2.880373   2.118382   -3.606408 C.3        1 UNL1     0.0016
     23 C         1.155118   4.66142   -5.758277 C.3        1 UNL1     0.0012
     24 C         1.046573   3.678515   -6.934658 C.3        1 UNL1     -0.0339
     25 C         0.132987   4.22683   -8.043156 C.3        1 UNL1     -0.0615
     26 C         2.430476   3.345609   -7.464532 C.3        1 UNL1     -0.0615
     27 C         8.803423   4.067217   0.275517 C.ar        1 UNL1     0.1347
     28 C         8.701797   3.388184   1.476615 C.ar        1 UNL1     0.0342
     29 C         7.567205   2.556093   1.583803 C.ar        1 UNL1     0.1435
     30 C         6.600338   2.462229   0.582015 C.ar        1 UNL1     0.0774
     31 O         7.269475   1.915249   2.735186 O.3        1 UNL1     -0.4436
     32 C         5.876166   1.589534   2.619116 C.3        1 UNL1     0.3143
     33 C         5.595329   1.575484   1.130108 C.2        1 UNL1     0.2504
     34 C         9.575434   3.594219   2.682603 C.3        1 UNL1     -0.0327
     35 O         5.712553   0.245154   3.087224 O.2        1 UNL1     -0.4528
     36 C         2.205059   0.064149   4.526951 C.3        1 UNL1     0.0854
     37 C         0.824888   0.376843   3.830621 C.3        1 UNL1     0.0236
     38 C         -0.248715   -0.812762   3.893559 C.3        1 UNL1     0.1131
     39 C         0.168506   -2.271408   3.445733 C.3        1 UNL1     0.0200
     40 C         1.073936   -2.504556   2.064329 C.3        1 UNL1     0.0661
     41 C         0.744208   -1.844305   0.536926 C.3        1 UNL1     0.0091
     42 C         1.88147   -1.321679   -0.804305 C.3        1 UNL1     0.0661
     43 C         7.924339   4.862745   -1.929477 C.2        1 UNL1     0.2131
     44 O         8.626858   5.854737   -2.001281 O.2        1 UNL1     -0.2851
     45 O         9.931425   4.847189   0.029157 O.3        1 UNL1     -0.5056
     46 O         4.747238   0.954714   0.529075 O.2        1 UNL1     -0.2836
     47 C         3.864901   -2.808648   -1.790578 C.3        1 UNL1     -0.0566
     48 O         1.125743   -2.019723   -1.872353 O.3        1 UNL1     -0.3909
     49 C         -0.288756   -0.750326   0.690834 C.3        1 UNL1     -0.0577
     50 O         2.454981   -2.402137   2.347082 O.3        1 UNL1     -0.3910
     51 O         2.389532   -1.264739   4.959914 O.3        1 UNL1     -0.3753
     52 C         1.003743   1.268676   2.558775 C.3        1 UNL1     -0.0564
     53 O         -1.644046   -0.381365   3.548198 O.3        1 UNL1     -0.4608
     54 C         -2.554057   -1.123869   2.842156 C.2        1 UNL1     0.3042
     55 O         -3.688737   -1.445224   3.192972 O.2        1 UNL1     -0.2512
     56 C         -2.078065   -1.514135   1.471813 C.3        1 UNL1     0.0332
     57 C         0.594314   -3.07633   4.760633 C.3        1 UNL1     -0.0567
     58 C         5.098055   2.760907   3.262511 C.3        1 UNL1     0.0210
     59 C         2.342149   -1.446349   6.374353 C.3        1 UNL1     0.0372
     60 C         3.408208   0.426663   3.729345 C.2        1 UNL1     -0.0208
     61 C         4.532784   -0.25379   3.503383 C.2        1 UNL1     0.0882
     62 H         4.00175   -0.925733   -0.780517 H        1 UNL1     0.0365
     63 H         5.406659   0.058509   -1.888545 H        1 UNL1     0.0576
     64 H         4.754549   -0.088531   -4.896852 H        1 UNL1     0.0615
     65 H         6.979134   1.384719   -3.27247 H        1 UNL1     0.0622
     66 H         2.222066   0.716502   5.411367 H        1 UNL1     0.0645
     67 H         0.357114   1.129683   4.488632 H        1 UNL1     0.0362
     68 H         -0.393649   -0.872289   4.983042 H        1 UNL1     0.0741
     69 H         -0.727404   -2.842297   3.241186 H        1 UNL1     0.0359
     70 H         0.903694   -3.586557   1.905108 H        1 UNL1     0.0600
     71 H         0.133666   -2.659605   0.101631 H        1 UNL1     0.0348
     72 H         2.462749   -1.99697   -0.159779 H        1 UNL1     0.0602
     73 H         3.327748   1.437849   3.415852 H        1 UNL1     0.0628
     74 H         4.673364   -1.308872   3.740609 H        1 UNL1     0.1022
     75 H         7.472835   3.611862   -6.811688 H        1 UNL1     0.0279
     76 H         7.602983   1.995049   -7.379382 H        1 UNL1     0.0279
     77 H         5.99937   2.769311   -7.056517 H        1 UNL1     0.0279
     78 H         6.570333   4.651227   -4.914286 H        1 UNL1     0.1553
     79 H         4.806151   3.822102   -4.558702 H        1 UNL1     0.1484
     80 H         2.056672   4.001318   -1.941884 H        1 UNL1     0.0317
     81 H         3.502405   4.998713   -1.871282 H        1 UNL1     0.0317
     82 H         3.452508   5.348988   -4.354932 H        1 UNL1     0.0428
     83 H         1.974708   5.860395   -3.569903 H        1 UNL1     0.0428
     84 H         1.89938   2.058674   -5.478929 H        1 UNL1     0.0428
     85 H         3.378901   2.946002   -5.592018 H        1 UNL1     0.0428
     86 H         3.266903   1.149773   -3.864051 H        1 UNL1     0.0317
     87 H         1.970341   1.886007   -3.039891 H        1 UNL1     0.0317
     88 H         0.141794   4.945112   -5.445245 H        1 UNL1     0.0429
     89 H         1.66887   5.583621   -6.058906 H        1 UNL1     0.0429
     90 H         0.628134   2.73141   -6.573943 H        1 UNL1     0.0308
     91 H         0.4679   3.900439   -9.032299 H        1 UNL1     0.0233
     92 H         -0.898875   3.902689   -7.888876 H        1 UNL1     0.0233
     93 H         0.109696   5.323177   -8.060924 H        1 UNL1     0.0233
     94 H         3.126999   4.160663   -7.240081 H        1 UNL1     0.0233
     95 H         2.806635   2.438543   -6.983183 H        1 UNL1     0.0233
     96 H         2.41675   3.191032   -8.547069 H        1 UNL1     0.0233
     97 H         9.00068   3.882858   3.557575 H        1 UNL1     0.0280
     98 H         10.113658   2.679918   2.964782 H        1 UNL1     0.0280
     99 H         10.310467   4.388876   2.474416 H        1 UNL1     0.0280
     100 H         10.345662   4.685565   -0.800245 H        1 UNL1     0.2922
     101 H         3.697939   -3.28062   -0.822579 H        1 UNL1     0.0236
     102 H         4.8656   -3.004868   -2.174093 H        1 UNL1     0.0236
     103 H         3.189831   -3.34071   -2.481507 H        1 UNL1     0.0236
     104 H         0.810623   -2.868359   -1.504268 H        1 UNL1     0.2098
     105 H         -1.303912   -1.053731   0.447496 H        1 UNL1     0.0234
     106 H         -0.268131   -0.236492   1.651811 H        1 UNL1     0.0234
     107 H         0.0   0.0   0.0 H        1 UNL1     0.0234
     108 H         2.920428   -2.316477   1.492805 H        1 UNL1     0.2098
     109 H         1.45568   2.242459   2.793748 H        1 UNL1     0.0234
     110 H         1.580511   0.778525   1.767046 H        1 UNL1     0.0234
     111 H         0.039562   1.495173   2.084433 H        1 UNL1     0.0234
     112 H         -2.704394   -2.319135   1.07554 H        1 UNL1     0.0342
     113 H         -2.054204   -0.665749   0.789527 H        1 UNL1     0.0342
     114 H         -1.052592   -1.898273   1.561296 H        1 UNL1     0.0342
     115 H         0.342821   -4.143255   4.685728 H        1 UNL1     0.0234
     116 H         1.657259   -3.005529   4.999763 H        1 UNL1     0.0234
     117 H         0.023037   -2.78529   5.658898 H        1 UNL1     0.0234
     118 H         4.615112   2.466619   4.210756 H        1 UNL1     0.0309
     119 H         5.719253   3.64527   3.436343 H        1 UNL1     0.0309
     120 H         4.257997   3.097053   2.644923 H        1 UNL1     0.0309
     121 H         2.376708   -2.517643   6.570541 H        1 UNL1     0.0524
     122 H         3.205563   -0.987462   6.884232 H        1 UNL1     0.0524
     123 H         1.427575   -1.020766   6.777501 H        1 UNL1     0.0524
@<TRIPOS>BOND
     1     1     2    1
     2     1    42    1
     3     2     3    2
     4     3     4    1
     5     4     5    2
     6     5     7    1
     7     6    75    1
     8     6    76    1
     9     6    77    1
    10     7     9   am
    11     9    10    1
    12    10    11    2
    13    10    43    1
    14    11    14    1
    15    11    15    1
    16    12    13   ar
    17    12    27   ar
    18    12    43    1
    19    13    14    1
    20    13    30   ar
    21    14    17    2
    22    15    16    1
    23    16    17    1
    24    16    18    1
    25    16    22    1
    26    18    19    1
    27    19    20    1
    28    20    21    1
    29    21    22    1
    30    23    24    1
    31    23    88    1
    32    23    89    1
    33    24    25    1
    34    24    26    1
    35    24    90    1
    36    25    91    1
    37    25    92    1
    38    25    93    1
    39    26    94    1
    40    26    95    1
    41    26    96    1
    42    27    28   ar
    43    28    29   ar
    44    29    30   ar
    45    29    31    1
    46    30    33    1
    47    31    32    1
    48    32    33    1
    49    32    35    1
    50    34    97    1
    51    34    98    1
    52    34    99    1
    53    35    61    1
    54    36    37    1
    55    36    60    1
    56    37    38    1
    57    38    39    1
    58    39    40    1
    59    40    41    1
    60    41    42    1
    61    45   100    1
    62    47   101    1
    63    47   102    1
    64    47   103    1
    65    48   104    1
    66    49   105    1
    67    49   106    1
    68    49   107    1
    69    50   108    1
    70    51    59    1
    71    52   109    1
    72    52   110    1
    73    52   111    1
    74    53    54    1
    75    54    55    2
    76    54    56    1
    77    56   112    1
    78    56   113    1
    79    56   114    1
    80    57   115    1
    81    57   116    1
    82    57   117    1
    83    58   118    1
    84    58   119    1
    85    58   120    1
    86    59   121    1
    87    59   122    1
    88    59   123    1
    89    60    61    2
    90     1    47    1
    91     1    62    1
    92     2    63    1
    93     3    64    1
    94     4    65    1
    95     5     6    1
    96     7     8    2
    97     9    78    1
    98    15    79    1
    99    18    80    1
   100    18    81    1
   101    19    82    1
   102    19    83    1
   103    20    23    1
   104    21    84    1
   105    21    85    1
   106    22    86    1
   107    22    87    1
   108    27    45    1
   109    28    34    1
   110    32    58    1
   111    33    46    2
   112    36    51    1
   113    36    66    1
   114    37    52    1
   115    37    67    1
   116    38    53    1
   117    38    68    1
   118    42    48    1
   119    42    72    1
   120    43    44    2
   121    60    73    1
   122    61    74    1
   123    39    69    1
   124    39    57    1
   125    40    70    1
   126    40    50    1
   127    41    71    1
   128    41    49    1
