@<TRIPOS>MOLECULE
*****
 123 128 0 0 0
SMALL
GASTEIGER

@<TRIPOS>ATOM
     1 C         4.935912   2.300506   0.596788 C.3        1 UNL1     0.0009
     2 C         6.321438   3.199574   -0.245253 C.2        1 UNL1     -0.0787
     3 C         7.640798   3.198115   -0.841351 C.2        1 UNL1     -0.0649
     4 C         8.419726   4.466722   -1.647741 C.2        1 UNL1     -0.0542
     5 C         9.451857   4.804062   -2.557678 C.2        1 UNL1     0.0115
     6 C         10.686452   4.248636   -3.31965 C.3        1 UNL1     -0.0348
     7 C         9.419512   6.241885   -3.270845 C.2        1 UNL1     0.2441
     8 O         10.12811   7.175092   -2.919362 O.2        1 UNL1     -0.2702
     9 N         8.716273   6.2802   -4.487454 N.am        1 UNL1     -0.2772
     10 C         7.38414   6.542547   -4.264034 C.2        1 UNL1     0.1049
     11 C         6.63346   5.505965   -3.93815 C.2        1 UNL1     0.0801
     12 C         5.845012   8.090241   -3.042125 C.ar        1 UNL1     0.0753
     13 C         5.188832   6.919254   -2.545309 C.ar        1 UNL1     0.0305
     14 C         5.480972   5.592282   -3.082757 C.2        1 UNL1     0.0924
     15 N         6.907251   4.191066   -3.989206 N.pl3        1 UNL1     -0.3170
     16 C         5.69423   3.477692   -3.689322 C.3        1 UNL1     0.1275
     17 N         4.906012   4.423025   -2.815949 N.2        1 UNL1     -0.2557
     18 C         4.910144   3.351353   -4.991992 C.3        1 UNL1     0.0016
     19 C         5.794823   2.677454   -6.028714 C.3        1 UNL1     0.0026
     20 N         6.190649   1.369005   -5.526408 N.3        1 UNL1     -0.3018
     21 C         6.898159   1.383192   -4.24438 C.3        1 UNL1     0.0026
     22 C         5.989513   2.060258   -3.21684 C.3        1 UNL1     0.0016
     23 C         6.780812   0.527543   -6.548314 C.3        1 UNL1     0.0012
     24 C         6.559295   1.136684   -7.941739 C.3        1 UNL1     -0.0339
     25 C         6.371486   0.045888   -9.008954 C.3        1 UNL1     -0.0615
     26 C         5.382158   2.095902   -7.909643 C.3        1 UNL1     -0.0615
     27 C         5.475654   9.362241   -2.611184 C.ar        1 UNL1     0.1347
     28 C         4.442217   9.590481   -1.720138 C.ar        1 UNL1     0.0342
     29 C         3.843111   8.420355   -1.207262 C.ar        1 UNL1     0.1435
     30 C         4.226826   7.138223   -1.602382 C.ar        1 UNL1     0.0774
     31 O         2.750978   8.47728   -0.414159 O.3        1 UNL1     -0.4436
     32 C         2.175363   7.164638   -0.49486 C.3        1 UNL1     0.3143
     33 C         3.317392   6.255618   -0.901881 C.2        1 UNL1     0.2504
     34 C         3.827233   10.925969   -1.406504 C.3        1 UNL1     -0.0327
     35 O         1.79275   6.78493   0.8328 O.2        1 UNL1     -0.4528
     36 C         -1.196407   4.479519   0.43517 C.3        1 UNL1     0.0854
     37 C         -1.314547   3.132242   -0.376255 C.3        1 UNL1     0.0236
     38 C         -1.817577   1.871158   0.477194 C.3        1 UNL1     0.1131
     39 C         -1.110784   1.51828   1.847664 C.3        1 UNL1     0.0200
     40 C         0.551687   1.562389   1.976829 C.3        1 UNL1     0.0661
     41 C         1.65068   0.824462   0.916033 C.3        1 UNL1     0.0091
     42 C         3.337365   1.334434   0.405714 C.3        1 UNL1     0.0661
     43 C         6.871593   7.910865   -4.098636 C.2        1 UNL1     0.2131
     44 O         7.210803   8.794693   -4.864483 O.2        1 UNL1     -0.2851
     45 O         6.195266   10.446389   -3.109403 O.3        1 UNL1     -0.5056
     46 O         3.455996   5.073728   -0.678766 O.2        1 UNL1     -0.2836
     47 C         5.297325   2.021135   2.080471 C.3        1 UNL1     -0.0566
     48 O         3.930438   -0.008387   0.615979 O.3        1 UNL1     -0.3909
     49 C         0.915286   0.412776   -0.339835 C.3        1 UNL1     -0.0577
     50 O         0.99467   2.864433   2.302665 O.3        1 UNL1     -0.3910
     51 O         -1.374952   4.376423   1.829775 O.3        1 UNL1     -0.3753
     52 C         -0.197624   3.007973   -1.463448 C.3        1 UNL1     -0.0564
     53 O         -2.254616   0.710162   -0.367443 O.3        1 UNL1     -0.4608
     54 C         -2.600087   -0.529756   0.102856 C.2        1 UNL1     0.3042
     55 O         -1.91908   -1.554195   0.078482 O.2        1 UNL1     -0.2512
     56 C         -3.950182   -0.568832   0.760452 C.3        1 UNL1     0.0332
     57 C         -1.967445   2.190427   3.019212 C.3        1 UNL1     -0.0567
     58 C         1.140694   7.210586   -1.643284 C.3        1 UNL1     0.0210
     59 C         -2.602826   4.914544   2.318261 C.3        1 UNL1     0.0372
     60 C         0.067536   5.235067   0.218937 C.2        1 UNL1     -0.0208
     61 C         0.879435   5.830105   1.093862 C.2        1 UNL1     0.0882
     62 H         4.352537   3.229094   0.586305 H        1 UNL1     0.0365
     63 H         5.937703   4.221864   -0.233382 H        1 UNL1     0.0576
     64 H         8.211462   2.275163   -0.966284 H        1 UNL1     0.0615
     65 H         7.818547   5.344317   -1.394969 H        1 UNL1     0.0622
     66 H         -1.999238   5.114334   0.034524 H        1 UNL1     0.0645
     67 H         -2.173815   3.298869   -1.048902 H        1 UNL1     0.0362
     68 H         -2.824008   2.223438   0.750173 H        1 UNL1     0.0741
     69 H         -1.341431   0.49293   2.104313 H        1 UNL1     0.0359
     70 H         0.685868   0.982895   2.910233 H        1 UNL1     0.0600
     71 H         1.780856   -0.152555   1.421454 H        1 UNL1     0.0348
     72 H         3.126197   1.876073   1.339175 H        1 UNL1     0.0602
     73 H         0.219771   5.37016   -0.823091 H        1 UNL1     0.0628
     74 H         0.826448   5.695281   2.174719 H        1 UNL1     0.1022
     75 H         11.346963   3.671834   -2.628231 H        1 UNL1     0.0279
     76 H         10.485526   3.526877   -4.108168 H        1 UNL1     0.0279
     77 H         11.368453   5.041683   -3.659727 H        1 UNL1     0.0279
     78 H         8.777189   5.37372   -4.946432 H        1 UNL1     0.1553
     79 H         7.647465   3.797275   -4.540517 H        1 UNL1     0.1484
     80 H         3.998301   2.771205   -4.805613 H        1 UNL1     0.0317
     81 H         4.588105   4.334458   -5.35178 H        1 UNL1     0.0317
     82 H         6.674851   3.290374   -6.273238 H        1 UNL1     0.0428
     83 H         5.216898   2.599018   -6.950073 H        1 UNL1     0.0428
     84 H         7.113278   0.384788   -3.851031 H        1 UNL1     0.0428
     85 H         7.886648   1.855613   -4.328206 H        1 UNL1     0.0428
     86 H         6.479678   1.934213   -2.269296 H        1 UNL1     0.0317
     87 H         5.061968   1.486362   -3.101088 H        1 UNL1     0.0317
     88 H         7.860852   0.468516   -6.360365 H        1 UNL1     0.0429
     89 H         6.388992   -0.496475   -6.496951 H        1 UNL1     0.0429
     90 H         7.43224   1.742727   -8.211723 H        1 UNL1     0.0308
     91 H         7.098731   -0.761985   -8.884222 H        1 UNL1     0.0233
     92 H         5.362203   -0.369852   -8.962951 H        1 UNL1     0.0233
     93 H         6.49688   0.432322   -10.027669 H        1 UNL1     0.0233
     94 H         4.975968   2.22922   -8.918143 H        1 UNL1     0.0233
     95 H         4.587384   1.691005   -7.276908 H        1 UNL1     0.0233
     96 H         5.676294   3.075774   -7.523244 H        1 UNL1     0.0233
     97 H         2.762831   10.944818   -1.620806 H        1 UNL1     0.0280
     98 H         3.924685   11.187334   -0.344691 H        1 UNL1     0.0280
     99 H         4.315299   11.708076   -2.010818 H        1 UNL1     0.0280
     100 H         7.130211   10.354074   -3.054838 H        1 UNL1     0.2922
     101 H         4.752063   2.708091   2.727338 H        1 UNL1     0.0236
     102 H         6.369633   2.043171   2.271918 H        1 UNL1     0.0236
     103 H         4.974803   1.017169   2.403308 H        1 UNL1     0.0236
     104 H         3.659934   -0.571284   -0.13565 H        1 UNL1     0.2098
     105 H         0.680547   1.23395   -1.012429 H        1 UNL1     0.0234
     106 H         1.377746   -0.40622   -0.890563 H        1 UNL1     0.0234
     107 H         0.0   -0.0   0.0 H        1 UNL1     0.0234
     108 H         1.903799   2.956299   1.95797 H        1 UNL1     0.2098
     109 H         0.293998   3.969619   -1.666568 H        1 UNL1     0.0234
     110 H         0.558644   2.254172   -1.219346 H        1 UNL1     0.0234
     111 H         -0.605701   2.673493   -2.426538 H        1 UNL1     0.0234
     112 H         -4.154767   -1.578021   1.130625 H        1 UNL1     0.0342
     113 H         -4.037897   0.165704   1.559581 H        1 UNL1     0.0342
     114 H         -4.708151   -0.328084   0.002371 H        1 UNL1     0.0342
     115 H         -2.730221   2.876267   2.625532 H        1 UNL1     0.0234
     116 H         -2.47441   1.472199   3.666656 H        1 UNL1     0.0234
     117 H         -1.379589   2.870398   3.65953 H        1 UNL1     0.0234
     118 H         0.103891   7.140512   -1.270275 H        1 UNL1     0.0309
     119 H         1.235737   8.101736   -2.27179 H        1 UNL1     0.0309
     120 H         1.224485   6.352512   -2.319149 H        1 UNL1     0.0309
     121 H         -2.446385   5.202275   3.357536 H        1 UNL1     0.0524
     122 H         -2.912525   5.81784   1.766734 H        1 UNL1     0.0524
     123 H         -3.39241   4.171602   2.249801 H        1 UNL1     0.0524
@<TRIPOS>BOND
     1     1     2    1
     2     1    42    1
     3     2     3    2
     4     3     4    1
     5     4     5    2
     6     5     7    1
     7     6    75    1
     8     6    76    1
     9     6    77    1
    10     7     9   am
    11     9    10    1
    12    10    11    2
    13    10    43    1
    14    11    14    1
    15    11    15    1
    16    12    13   ar
    17    12    27   ar
    18    12    43    1
    19    13    14    1
    20    13    30   ar
    21    14    17    2
    22    15    16    1
    23    16    17    1
    24    16    18    1
    25    16    22    1
    26    18    19    1
    27    19    20    1
    28    20    21    1
    29    21    22    1
    30    23    24    1
    31    23    88    1
    32    23    89    1
    33    24    25    1
    34    24    26    1
    35    24    90    1
    36    25    91    1
    37    25    92    1
    38    25    93    1
    39    26    94    1
    40    26    95    1
    41    26    96    1
    42    27    28   ar
    43    28    29   ar
    44    29    30   ar
    45    29    31    1
    46    30    33    1
    47    31    32    1
    48    32    33    1
    49    32    35    1
    50    34    97    1
    51    34    98    1
    52    34    99    1
    53    35    61    1
    54    36    37    1
    55    36    60    1
    56    37    38    1
    57    38    39    1
    58    39    40    1
    59    40    41    1
    60    41    42    1
    61    45   100    1
    62    47   101    1
    63    47   102    1
    64    47   103    1
    65    48   104    1
    66    49   105    1
    67    49   106    1
    68    49   107    1
    69    50   108    1
    70    51    59    1
    71    52   109    1
    72    52   110    1
    73    52   111    1
    74    53    54    1
    75    54    55    2
    76    54    56    1
    77    56   112    1
    78    56   113    1
    79    56   114    1
    80    57   115    1
    81    57   116    1
    82    57   117    1
    83    58   118    1
    84    58   119    1
    85    58   120    1
    86    59   121    1
    87    59   122    1
    88    59   123    1
    89    60    61    2
    90     1    47    1
    91     1    62    1
    92     2    63    1
    93     3    64    1
    94     4    65    1
    95     5     6    1
    96     7     8    2
    97     9    78    1
    98    15    79    1
    99    18    80    1
   100    18    81    1
   101    19    82    1
   102    19    83    1
   103    20    23    1
   104    21    84    1
   105    21    85    1
   106    22    86    1
   107    22    87    1
   108    27    45    1
   109    28    34    1
   110    32    58    1
   111    33    46    2
   112    36    51    1
   113    36    66    1
   114    37    52    1
   115    37    67    1
   116    38    53    1
   117    38    68    1
   118    42    48    1
   119    42    72    1
   120    43    44    2
   121    60    73    1
   122    61    74    1
   123    39    69    1
   124    39    57    1
   125    40    70    1
   126    40    50    1
   127    41    71    1
   128    41    49    1
