@<TRIPOS>MOLECULE
*****
 123 128 0 0 0
SMALL
GASTEIGER

@<TRIPOS>ATOM
     1 C         -3.809033   1.8393   -0.471813 C.3        1 UNL1     0.0009
     2 C         -4.47727   3.432043   0.201735 C.2        1 UNL1     -0.0787
     3 C         -5.12948   4.172383   1.261247 C.2        1 UNL1     -0.0649
     4 C         -5.39817   5.841524   1.351429 C.2        1 UNL1     -0.0542
     5 C         -5.677675   6.9274   2.217355 C.2        1 UNL1     0.0115
     6 C         -6.089479   7.304911   3.666915 C.3        1 UNL1     -0.0348
     7 C         -5.397943   8.422419   1.703879 C.2        1 UNL1     0.2441
     8 O         -6.28565   9.170507   1.318046 O.2        1 UNL1     -0.2702
     9 N         -4.104943   8.904812   1.971463 N.am        1 UNL1     -0.2772
     10 C         -3.245966   8.568035   0.950649 C.2        1 UNL1     0.1049
     11 C         -2.731737   7.352563   0.999808 C.2        1 UNL1     0.0801
     12 C         -3.012256   8.607923   -1.539556 C.ar        1 UNL1     0.0753
     13 C         -2.659579   7.223639   -1.450194 C.ar        1 UNL1     0.0305
     14 C         -2.380357   6.586593   -0.165181 C.2        1 UNL1     0.0924
     15 N         -2.741109   6.450296   1.995978 N.pl3        1 UNL1     -0.3170
     16 C         -1.894822   5.354544   1.604339 C.3        1 UNL1     0.1275
     17 N         -1.948346   5.356131   0.096077 N.2        1 UNL1     -0.2557
     18 C         -0.464511   5.73203   1.977724 C.3        1 UNL1     0.0016
     19 C         -0.419811   6.060576   3.46152 C.3        1 UNL1     0.0026
     20 N         -0.867221   4.89557   4.212261 N.3        1 UNL1     -0.3018
     21 C         -2.210871   4.418922   3.877924 C.3        1 UNL1     0.0026
     22 C         -2.231737   4.090413   2.38409 C.3        1 UNL1     0.0016
     23 C         -0.581864   4.994483   5.629805 C.3        1 UNL1     0.0012
     24 C         -1.718153   5.729605   6.357953 C.3        1 UNL1     -0.0339
     25 C         -2.95077   4.827222   6.532356 C.3        1 UNL1     -0.0615
     26 C         -1.223019   6.263354   7.690895 C.3        1 UNL1     -0.0615
     27 C         -3.158577   9.237243   -2.773519 C.ar        1 UNL1     0.1347
     28 C         -2.939916   8.598406   -3.981048 C.ar        1 UNL1     0.0342
     29 C         -2.641489   7.223735   -3.869763 C.ar        1 UNL1     0.1435
     30 C         -2.527152   6.571272   -2.641578 C.ar        1 UNL1     0.0774
     31 O         -2.294443   6.48833   -4.948533 O.3        1 UNL1     -0.4436
     32 C         -1.628059   5.338935   -4.404752 C.3        1 UNL1     0.3143
     33 C         -2.142031   5.218151   -2.98438 C.2        1 UNL1     0.2504
     34 C         -2.831656   9.264911   -5.324235 C.3        1 UNL1     -0.0327
     35 O         -2.104666   4.192288   -5.119803 O.2        1 UNL1     -0.4528
     36 C         0.755901   1.69726   -5.11086 C.3        1 UNL1     0.0854
     37 C         1.52512   1.067823   -3.886264 C.3        1 UNL1     0.0236
     38 C         1.550061   -0.535354   -3.855508 C.3        1 UNL1     0.1131
     39 C         0.19993   -1.344727   -4.011487 C.3        1 UNL1     0.0200
     40 C         -1.173042   -0.862869   -3.19589 C.3        1 UNL1     0.0661
     41 C         -1.27105   -0.503564   -1.540927 C.3        1 UNL1     0.0091
     42 C         -2.327312   0.699246   -0.644846 C.3        1 UNL1     0.0661
     43 C         -3.129488   9.373823   -0.273889 C.2        1 UNL1     0.2131
     44 O         -3.032775   10.585931   -0.209261 O.2        1 UNL1     -0.2851
     45 O         -3.548206   10.575013   -2.773229 O.3        1 UNL1     -0.5056
     46 O         -2.233826   4.224912   -2.298157 O.2        1 UNL1     -0.2836
     47 C         -4.971412   0.916297   -0.926699 C.3        1 UNL1     -0.0566
     48 O         -2.742113   -0.269316   0.398679 O.3        1 UNL1     -0.3909
     49 C         0.129684   -0.357218   -0.989544 C.3        1 UNL1     -0.0577
     50 O         -1.887169   0.101436   -3.942791 O.3        1 UNL1     -0.3910
     51 O         0.043851   0.79107   -5.922794 O.3        1 UNL1     -0.3753
     52 C         1.349772   1.921474   -2.588003 C.3        1 UNL1     -0.0564
     53 O         2.562544   -1.102087   -2.903658 O.3        1 UNL1     -0.4608
     54 C         3.245176   -0.390202   -1.952258 C.2        1 UNL1     0.3042
     55 O         4.136017   -0.799963   -1.209064 O.2        1 UNL1     -0.2512
     56 C         2.858371   1.060203   -1.893755 C.3        1 UNL1     0.0332
     57 C         0.050264   -1.740393   -5.55396 C.3        1 UNL1     -0.0567
     58 C         -0.121656   5.686041   -4.362356 C.3        1 UNL1     0.0210
     59 C         0.674693   -0.476052   -6.102533 C.3        1 UNL1     0.0372
     60 C         -0.187106   2.795267   -4.764047 C.2        1 UNL1     -0.0208
     61 C         -1.434997   3.025024   -5.174808 C.2        1 UNL1     0.0882
     62 H         -3.471599   2.380408   -1.36403 H        1 UNL1     0.0365
     63 H         -4.320447   4.095541   -0.651286 H        1 UNL1     0.0576
     64 H         -5.373939   3.706501   2.218483 H        1 UNL1     0.0615
     65 H         -5.203358   6.192174   0.334288 H        1 UNL1     0.0622
     66 H         1.543098   2.158482   -5.723755 H        1 UNL1     0.0645
     67 H         2.585359   1.299996   -4.087632 H        1 UNL1     0.0362
     68 H         2.114461   -0.72832   -4.780569 H        1 UNL1     0.0741
     69 H         0.352918   -2.350858   -3.644468 H        1 UNL1     0.0359
     70 H         -1.779649   -1.7846   -3.282498 H        1 UNL1     0.0600
     71 H         -1.557799   -1.497162   -1.14407 H        1 UNL1     0.0348
     72 H         -2.812356   0.535904   -1.618174 H        1 UNL1     0.0602
     73 H         0.322797   3.5231   -4.183094 H        1 UNL1     0.0628
     74 H         -2.045829   2.306932   -5.722955 H        1 UNL1     0.1022
     75 H         -5.480371   6.734165   4.408718 H        1 UNL1     0.0279
     76 H         -5.917993   8.336237   3.966959 H        1 UNL1     0.0279
     77 H         -7.106862   6.972528   3.920206 H        1 UNL1     0.0279
     78 H         -3.749969   8.477092   2.82418 H        1 UNL1     0.1553
     79 H         -2.921603   6.681881   2.955521 H        1 UNL1     0.1484
     80 H         0.201545   4.896004   1.732374 H        1 UNL1     0.0317
     81 H         -0.120188   6.589928   1.390268 H        1 UNL1     0.0317
     82 H         -1.029485   6.944125   3.701421 H        1 UNL1     0.0428
     83 H         0.608487   6.328713   3.705969 H        1 UNL1     0.0428
     84 H         -2.491202   3.497264   4.397321 H        1 UNL1     0.0428
     85 H         -2.985775   5.138966   4.175207 H        1 UNL1     0.0428
     86 H         -3.181708   3.622402   2.203787 H        1 UNL1     0.0317
     87 H         -1.510596   3.293348   2.165599 H        1 UNL1     0.0317
     88 H         -0.507815   3.976867   6.035104 H        1 UNL1     0.0429
     89 H         0.384553   5.483099   5.808877 H        1 UNL1     0.0429
     90 H         -2.009706   6.609677   5.772561 H        1 UNL1     0.0308
     91 H         -3.878794   5.39951   6.440918 H        1 UNL1     0.0233
     92 H         -2.949889   4.024573   5.791166 H        1 UNL1     0.0233
     93 H         -2.974377   4.337493   7.513398 H        1 UNL1     0.0233
     94 H         -1.805116   5.8296   8.511174 H        1 UNL1     0.0233
     95 H         -0.175221   5.986928   7.838105 H        1 UNL1     0.0233
     96 H         -1.311437   7.352158   7.742439 H        1 UNL1     0.0233
     97 H         -1.805254   9.519163   -5.571387 H        1 UNL1     0.0280
     98 H         -3.184955   8.617274   -6.137256 H        1 UNL1     0.0280
     99 H         -3.427216   10.19249   -5.325015 H        1 UNL1     0.0280
     100 H         -2.867944   11.18088   -2.537029 H        1 UNL1     0.2922
     101 H         -5.533779   1.399696   -1.725275 H        1 UNL1     0.0236
     102 H         -5.615005   0.601374   -0.105971 H        1 UNL1     0.0236
     103 H         -4.604083   -0.02327   -1.372206 H        1 UNL1     0.0236
     104 H         -3.652734   -0.039752   0.668935 H        1 UNL1     0.2098
     105 H         0.690977   -1.286726   -0.936844 H        1 UNL1     0.0234
     106 H         0.728052   0.418892   -1.466551 H        1 UNL1     0.0234
     107 H         0.0   0.0   0.0 H        1 UNL1     0.0234
     108 H         -2.267962   0.737256   -3.306788 H        1 UNL1     0.2098
     109 H         0.419438   1.68119   -2.05466 H        1 UNL1     0.0234
     110 H         2.198286   1.838331   -1.900359 H        1 UNL1     0.0234
     111 H         1.294259   2.99474   -2.813758 H        1 UNL1     0.0234
     112 H         3.267374   1.518203   -0.988052 H        1 UNL1     0.0342
     113 H         3.173161   1.604198   -2.783035 H        1 UNL1     0.0342
     114 H         1.762834   1.121092   -1.836696 H        1 UNL1     0.0342
     115 H         0.425369   -2.75355   -5.75395 H        1 UNL1     0.0234
     116 H         -0.974282   -1.689822   -5.927854 H        1 UNL1     0.0234
     117 H         0.687992   -1.140565   -6.22586 H        1 UNL1     0.0234
     118 H         0.513475   4.794048   -4.50365 H        1 UNL1     0.0309
     119 H         0.164233   6.448745   -5.093623 H        1 UNL1     0.0309
     120 H         0.194183   6.06884   -3.385721 H        1 UNL1     0.0309
     121 H         0.030846   -1.231591   -5.653112 H        1 UNL1     0.0524
     122 H         0.797219   -0.735105   -7.167387 H        1 UNL1     0.0524
     123 H         1.649837   -0.481698   -5.62383 H        1 UNL1     0.0524
@<TRIPOS>BOND
     1     1     2    1
     2     1    42    1
     3     2     3    2
     4     3     4    1
     5     4     5    2
     6     5     7    1
     7     6    75    1
     8     6    76    1
     9     6    77    1
    10     7     9   am
    11     9    10    1
    12    10    11    2
    13    10    43    1
    14    11    14    1
    15    11    15    1
    16    12    13   ar
    17    12    27   ar
    18    12    43    1
    19    13    14    1
    20    13    30   ar
    21    14    17    2
    22    15    16    1
    23    16    17    1
    24    16    18    1
    25    16    22    1
    26    18    19    1
    27    19    20    1
    28    20    21    1
    29    21    22    1
    30    23    24    1
    31    23    88    1
    32    23    89    1
    33    24    25    1
    34    24    26    1
    35    24    90    1
    36    25    91    1
    37    25    92    1
    38    25    93    1
    39    26    94    1
    40    26    95    1
    41    26    96    1
    42    27    28   ar
    43    28    29   ar
    44    29    30   ar
    45    29    31    1
    46    30    33    1
    47    31    32    1
    48    32    33    1
    49    32    35    1
    50    34    97    1
    51    34    98    1
    52    34    99    1
    53    35    61    1
    54    36    37    1
    55    36    60    1
    56    37    38    1
    57    38    39    1
    58    39    40    1
    59    40    41    1
    60    41    42    1
    61    45   100    1
    62    47   101    1
    63    47   102    1
    64    47   103    1
    65    48   104    1
    66    49   105    1
    67    49   106    1
    68    49   107    1
    69    50   108    1
    70    51    59    1
    71    52   109    1
    72    52   110    1
    73    52   111    1
    74    53    54    1
    75    54    55    2
    76    54    56    1
    77    56   112    1
    78    56   113    1
    79    56   114    1
    80    57   115    1
    81    57   116    1
    82    57   117    1
    83    58   118    1
    84    58   119    1
    85    58   120    1
    86    59   121    1
    87    59   122    1
    88    59   123    1
    89    60    61    2
    90     1    47    1
    91     1    62    1
    92     2    63    1
    93     3    64    1
    94     4    65    1
    95     5     6    1
    96     7     8    2
    97     9    78    1
    98    15    79    1
    99    18    80    1
   100    18    81    1
   101    19    82    1
   102    19    83    1
   103    20    23    1
   104    21    84    1
   105    21    85    1
   106    22    86    1
   107    22    87    1
   108    27    45    1
   109    28    34    1
   110    32    58    1
   111    33    46    2
   112    36    51    1
   113    36    66    1
   114    37    52    1
   115    37    67    1
   116    38    53    1
   117    38    68    1
   118    42    48    1
   119    42    72    1
   120    43    44    2
   121    60    73    1
   122    61    74    1
   123    39    69    1
   124    39    57    1
   125    40    70    1
   126    40    50    1
   127    41    71    1
   128    41    49    1
