@<TRIPOS>MOLECULE
*****
 123 128 0 0 0
SMALL
GASTEIGER

@<TRIPOS>ATOM
     1 C         -3.169039   1.981284   -1.747292 C.3        1 UNL1     0.0009
     2 C         -4.92957   2.035838   -1.168853 C.2        1 UNL1     -0.0787
     3 C         -6.286789   1.535186   -1.226733 C.2        1 UNL1     -0.0649
     4 C         -7.59787   1.966944   -0.246422 C.2        1 UNL1     -0.0542
     5 C         -8.875643   1.574231   0.222781 C.2        1 UNL1     0.0115
     6 C         -10.023149   0.544884   0.030439 C.3        1 UNL1     -0.0348
     7 C         -9.472691   2.281435   1.534416 C.2        1 UNL1     0.2441
     8 O         -10.326805   3.156022   1.488474 O.2        1 UNL1     -0.2702
     9 N         -9.142145   1.650071   2.746138 N.am        1 UNL1     -0.2772
     10 C         -7.947359   2.132654   3.228757 C.2        1 UNL1     0.1049
     11 C         -6.854081   1.590514   2.723733 C.2        1 UNL1     0.0801
     12 C         -6.716645   4.255557   3.714517 C.ar        1 UNL1     0.0753
     13 C         -5.625523   3.700721   2.972751 C.ar        1 UNL1     0.0305
     14 C         -5.611973   2.297374   2.565954 C.2        1 UNL1     0.0924
     15 N         -6.706663   0.492765   1.962325 N.pl3        1 UNL1     -0.3170
     16 C         -5.297018   0.23877   1.825788 C.3        1 UNL1     0.1275
     17 N         -4.652989   1.596255   1.967866 N.2        1 UNL1     -0.2557
     18 C         -4.862249   -0.566101   3.046795 C.3        1 UNL1     0.0016
     19 C         -5.720156   -1.818253   3.134554 C.3        1 UNL1     0.0026
     20 N         -5.54918   -2.589137   1.910817 N.3        1 UNL1     -0.3018
     21 C         -5.883807   -1.877216   0.675681 C.3        1 UNL1     0.0026
     22 C         -5.007197   -0.625592   0.605775 C.3        1 UNL1     0.0016
     23 C         -6.081003   -3.933574   2.012288 C.3        1 UNL1     0.0012
     24 C         -7.410985   -4.045618   1.25048 C.3        1 UNL1     -0.0339
     25 C         -7.81133   -2.702833   0.617464 C.3        1 UNL1     -0.0615
     26 C         -7.324448   -5.149817   0.211233 C.3        1 UNL1     -0.0615
     27 C         -6.668669   5.559236   4.202613 C.ar        1 UNL1     0.1347
     28 C         -5.571225   6.38715   4.046969 C.ar        1 UNL1     0.0342
     29 C         -4.528708   5.836693   3.271522 C.ar        1 UNL1     0.1435
     30 C         -4.577782   4.545163   2.745439 C.ar        1 UNL1     0.0774
     31 O         -3.348218   6.476321   3.122105 O.3        1 UNL1     -0.4436
     32 C         -2.430126   5.451931   2.711489 C.3        1 UNL1     0.3143
     33 C         -3.294041   4.367845   2.099425 C.2        1 UNL1     0.2504
     34 C         -5.347046   7.695893   4.751977 C.3        1 UNL1     -0.0327
     35 O         -1.630827   5.995363   1.653636 O.2        1 UNL1     -0.4528
     36 C         1.731695   4.249915   1.888046 C.3        1 UNL1     0.0854
     37 C         2.059684   2.70809   1.835871 C.3        1 UNL1     0.0236
     38 C         3.127156   2.281657   0.717657 C.3        1 UNL1     0.1131
     39 C         2.929923   2.757363   -0.778027 C.3        1 UNL1     0.0200
     40 C         1.424048   2.695114   -1.492802 C.3        1 UNL1     0.0661
     41 C         0.383694   1.355276   -1.503198 C.3        1 UNL1     0.0091
     42 C         -1.448888   1.271531   -1.49731 C.3        1 UNL1     0.0661
     43 C         -7.864183   3.366878   4.023821 C.2        1 UNL1     0.2131
     44 O         -8.64175   3.565731   4.939563 O.2        1 UNL1     -0.2851
     45 O         -7.791144   6.037985   4.875136 O.3        1 UNL1     -0.5056
     46 O         -2.996164   3.555141   1.252882 O.2        1 UNL1     -0.2836
     47 C         -3.044484   2.619877   -3.156784 C.3        1 UNL1     -0.0566
     48 O         -1.520547   0.276123   -2.594189 O.3        1 UNL1     -0.3909
     49 C         0.874664   0.348314   -0.487093 C.3        1 UNL1     -0.0577
     50 O         0.69176   3.873353   -1.222194 O.3        1 UNL1     -0.3910
     51 O         2.274047   5.030694   0.847052 O.3        1 UNL1     -0.3753
     52 C         0.804468   1.834842   2.162706 C.3        1 UNL1     -0.0564
     53 O         3.681021   0.900407   0.911846 O.3        1 UNL1     -0.4608
     54 C         4.897665   0.460778   0.459701 C.2        1 UNL1     0.3042
     55 O         5.726735   1.09599   -0.190673 O.2        1 UNL1     -0.2512
     56 C         5.225132   -0.942906   0.882963 C.3        1 UNL1     0.0332
     57 C         3.796182   4.086712   -0.979526 C.3        1 UNL1     -0.0567
     58 C         -1.781171   4.90275   4.003304 C.3        1 UNL1     0.0210
     59 C         2.234832   6.439244   1.071357 C.3        1 UNL1     0.0372
     60 C         0.282958   4.582423   1.963949 C.2        1 UNL1     -0.0208
     61 C         -0.430108   5.495702   1.303492 C.2        1 UNL1     0.0882
     62 H         -2.92713   2.769475   -1.02414 H        1 UNL1     0.0365
     63 H         -4.894437   2.890482   -0.490016 H        1 UNL1     0.0576
     64 H         -6.552444   0.670895   -1.839542 H        1 UNL1     0.0615
     65 H         -7.258301   2.875952   0.257443 H        1 UNL1     0.0622
     66 H         2.169735   4.593376   2.835781 H        1 UNL1     0.0645
     67 H         2.628282   2.523408   2.763852 H        1 UNL1     0.0362
     68 H         4.007527   2.830885   1.08483 H        1 UNL1     0.0741
     69 H         3.52572   2.127425   -1.425029 H        1 UNL1     0.0359
     70 H         1.714075   2.787956   -2.55691 H        1 UNL1     0.0600
     71 H         0.695369   0.87591   -2.451894 H        1 UNL1     0.0348
     72 H         -1.19276   2.285858   -1.836212 H        1 UNL1     0.0602
     73 H         -0.157695   4.042888   2.765182 H        1 UNL1     0.0628
     74 H         -0.070885   6.048472   0.434792 H        1 UNL1     0.1022
     75 H         -9.737351   -0.223705   -0.727601 H        1 UNL1     0.0279
     76 H         -10.279585   -0.062993   0.895191 H        1 UNL1     0.0279
     77 H         -10.91682   0.986228   -0.434608 H        1 UNL1     0.0279
     78 H         -9.028587   0.650491   2.591145 H        1 UNL1     0.1553
     79 H         -7.399124   -0.229497   1.886379 H        1 UNL1     0.1484
     80 H         -3.798577   -0.815298   2.950519 H        1 UNL1     0.0317
     81 H         -4.96375   0.026355   3.962406 H        1 UNL1     0.0317
     82 H         -6.77935   -1.574994   3.304395 H        1 UNL1     0.0428
     83 H         -5.394656   -2.376443   4.012918 H        1 UNL1     0.0428
     84 H         -5.67116   -2.450189   -0.232226 H        1 UNL1     0.0428
     85 H         -6.958592   -1.659124   0.607928 H        1 UNL1     0.0428
     86 H         -5.181801   -0.203743   -0.366616 H        1 UNL1     0.0317
     87 H         -3.948627   -0.910908   0.572293 H        1 UNL1     0.0317
     88 H         -5.357859   -4.622246   1.556122 H        1 UNL1     0.0429
     89 H         -6.198102   -4.238033   3.060318 H        1 UNL1     0.0429
     90 H         -8.199701   -4.351827   1.947887 H        1 UNL1     0.0308
     91 H         -8.151603   -2.835098   -0.413953 H        1 UNL1     0.0233
     92 H         -8.603103   -2.223089   1.197595 H        1 UNL1     0.0233
     93 H         -6.978453   -1.989864   0.588724 H        1 UNL1     0.0233
     94 H         -6.585481   -4.890598   -0.554645 H        1 UNL1     0.0233
     95 H         -7.006907   -6.083562   0.683727 H        1 UNL1     0.0233
     96 H         -8.288178   -5.312422   -0.279433 H        1 UNL1     0.0233
     97 H         -5.601712   7.639703   5.80612 H        1 UNL1     0.0280
     98 H         -4.296504   8.012283   4.713049 H        1 UNL1     0.0280
     99 H         -5.970483   8.477073   4.287026 H        1 UNL1     0.0280
     100 H         -8.600427   5.625376   4.629295 H        1 UNL1     0.2922
     101 H         -3.970758   2.470606   -3.711211 H        1 UNL1     0.0236
     102 H         -2.174855   2.268634   -3.711182 H        1 UNL1     0.0236
     103 H         -2.922011   3.714692   -3.106062 H        1 UNL1     0.0236
     104 H         -0.626123   -0.100149   -2.709925 H        1 UNL1     0.2098
     105 H         1.38153   -0.512278   -0.91637 H        1 UNL1     0.0234
     106 H         1.468693   0.771345   0.322908 H        1 UNL1     0.0234
     107 H         0.0   0.0   0.0 H        1 UNL1     0.0234
     108 H         -0.223945   3.604595   -1.014775 H        1 UNL1     0.2098
     109 H         0.941477   1.233488   3.072274 H        1 UNL1     0.0234
     110 H         -0.117399   2.42047   2.246042 H        1 UNL1     0.0234
     111 H         0.591527   1.11593   1.360354 H        1 UNL1     0.0234
     112 H         5.261109   -1.003533   1.974923 H        1 UNL1     0.0342
     113 H         4.523139   -1.668195   0.474303 H        1 UNL1     0.0342
     114 H         6.223606   -1.193024   0.498703 H        1 UNL1     0.0342
     115 H         4.689327   3.903158   -1.592543 H        1 UNL1     0.0234
     116 H         3.245733   4.909829   -1.439453 H        1 UNL1     0.0234
     117 H         4.251397   4.460809   -0.046374 H        1 UNL1     0.0234
     118 H         -1.048665   4.104099   3.792121 H        1 UNL1     0.0309
     119 H         -1.300252   5.679522   4.60625 H        1 UNL1     0.0309
     120 H         -2.506139   4.412698   4.662378 H        1 UNL1     0.0309
     121 H         1.348432   6.828217   0.571006 H        1 UNL1     0.0524
     122 H         2.148856   6.6902   2.141715 H        1 UNL1     0.0524
     123 H         3.128341   6.908796   0.669789 H        1 UNL1     0.0524
@<TRIPOS>BOND
     1     1     2    1
     2     1    42    1
     3     2     3    2
     4     3     4    1
     5     4     5    2
     6     5     7    1
     7     6    75    1
     8     6    76    1
     9     6    77    1
    10     7     9   am
    11     9    10    1
    12    10    11    2
    13    10    43    1
    14    11    14    1
    15    11    15    1
    16    12    13   ar
    17    12    27   ar
    18    12    43    1
    19    13    14    1
    20    13    30   ar
    21    14    17    2
    22    15    16    1
    23    16    17    1
    24    16    18    1
    25    16    22    1
    26    18    19    1
    27    19    20    1
    28    20    21    1
    29    21    22    1
    30    23    24    1
    31    23    88    1
    32    23    89    1
    33    24    25    1
    34    24    26    1
    35    24    90    1
    36    25    91    1
    37    25    92    1
    38    25    93    1
    39    26    94    1
    40    26    95    1
    41    26    96    1
    42    27    28   ar
    43    28    29   ar
    44    29    30   ar
    45    29    31    1
    46    30    33    1
    47    31    32    1
    48    32    33    1
    49    32    35    1
    50    34    97    1
    51    34    98    1
    52    34    99    1
    53    35    61    1
    54    36    37    1
    55    36    60    1
    56    37    38    1
    57    38    39    1
    58    39    40    1
    59    40    41    1
    60    41    42    1
    61    45   100    1
    62    47   101    1
    63    47   102    1
    64    47   103    1
    65    48   104    1
    66    49   105    1
    67    49   106    1
    68    49   107    1
    69    50   108    1
    70    51    59    1
    71    52   109    1
    72    52   110    1
    73    52   111    1
    74    53    54    1
    75    54    55    2
    76    54    56    1
    77    56   112    1
    78    56   113    1
    79    56   114    1
    80    57   115    1
    81    57   116    1
    82    57   117    1
    83    58   118    1
    84    58   119    1
    85    58   120    1
    86    59   121    1
    87    59   122    1
    88    59   123    1
    89    60    61    2
    90     1    47    1
    91     1    62    1
    92     2    63    1
    93     3    64    1
    94     4    65    1
    95     5     6    1
    96     7     8    2
    97     9    78    1
    98    15    79    1
    99    18    80    1
   100    18    81    1
   101    19    82    1
   102    19    83    1
   103    20    23    1
   104    21    84    1
   105    21    85    1
   106    22    86    1
   107    22    87    1
   108    27    45    1
   109    28    34    1
   110    32    58    1
   111    33    46    2
   112    36    51    1
   113    36    66    1
   114    37    52    1
   115    37    67    1
   116    38    53    1
   117    38    68    1
   118    42    48    1
   119    42    72    1
   120    43    44    2
   121    60    73    1
   122    61    74    1
   123    39    69    1
   124    39    57    1
   125    40    70    1
   126    40    50    1
   127    41    71    1
   128    41    49    1
