@<TRIPOS>MOLECULE
*****
 123 128 0 0 0
SMALL
GASTEIGER

@<TRIPOS>ATOM
     1 C         5.11779   1.889799   0.498643 C.3        1 UNL1     0.0009
     2 C         6.515387   2.773472   -0.339737 C.2        1 UNL1     -0.0787
     3 C         7.794929   2.742963   -1.01641 C.2        1 UNL1     -0.0649
     4 C         8.617758   4.030817   -1.74493 C.2        1 UNL1     -0.0542
     5 C         9.618329   4.387604   -2.682287 C.2        1 UNL1     0.0115
     6 C         10.763293   3.829641   -3.571702 C.3        1 UNL1     -0.0348
     7 C         9.651158   5.888818   -3.249974 C.2        1 UNL1     0.2441
     8 O         10.445326   6.731902   -2.856234 O.2        1 UNL1     -0.2702
     9 N         8.884417   6.096841   -4.40971 N.am        1 UNL1     -0.2772
     10 C         7.590085   6.424702   -4.077242 C.2        1 UNL1     0.1049
     11 C         6.785041   5.413639   -3.805438 C.2        1 UNL1     0.0801
     12 C         6.241078   7.941863   -2.615826 C.ar        1 UNL1     0.0753
     13 C         5.52999   6.773793   -2.193246 C.ar        1 UNL1     0.0305
     14 C         5.69267   5.491002   -2.873712 C.2        1 UNL1     0.0924
     15 N         6.958072   4.095093   -4.000441 N.pl3        1 UNL1     -0.3170
     16 C         5.714969   3.438689   -3.693714 C.3        1 UNL1     0.1275
     17 N         5.049461   4.342326   -2.684625 N.2        1 UNL1     -0.2557
     18 C         4.850721   3.497397   -4.949632 C.3        1 UNL1     0.0016
     19 C         5.622911   2.873127   -6.100979 C.3        1 UNL1     0.0026
     20 N         5.949474   1.497024   -5.753525 N.3        1 UNL1     -0.3018
     21 C         6.728058   1.33424   -4.524023 C.3        1 UNL1     0.0026
     22 C         5.931714   1.964197   -3.379957 C.3        1 UNL1     0.0016
     23 C         6.416954   0.724821   -6.887461 C.3        1 UNL1     0.0012
     24 C         5.264536   0.456118   -7.868016 C.3        1 UNL1     -0.0339
     25 C         5.293895   1.436087   -9.052439 C.3        1 UNL1     -0.0615
     26 C         5.305238   -0.988127   -8.336289 C.3        1 UNL1     -0.0615
     27 C         5.991401   9.186026   -2.04151 C.ar        1 UNL1     0.1347
     28 C         5.03003   9.392637   -1.068305 C.ar        1 UNL1     0.0342
     29 C         4.376747   8.219951   -0.633342 C.ar        1 UNL1     0.1435
     30 C         4.642017   6.961154   -1.173974 C.ar        1 UNL1     0.0774
     31 O         3.338756   8.270336   0.229817 O.3        1 UNL1     -0.4436
     32 C         2.664542   7.014369   0.059948 C.3        1 UNL1     0.3143
     33 C         3.711585   6.075928   -0.505066 C.2        1 UNL1     0.2504
     34 C         4.53377   10.728217   -0.588668 C.3        1 UNL1     -0.0327
     35 O         2.331375   6.529608   1.366569 O.2        1 UNL1     -0.4528
     36 C         -0.836965   4.483073   0.940654 C.3        1 UNL1     0.0854
     37 C         -1.099901   3.235418   0.012352 C.3        1 UNL1     0.0236
     38 C         -1.644792   1.931664   0.770682 C.3        1 UNL1     0.1131
     39 C         -0.888863   1.395665   2.052691 C.3        1 UNL1     0.0200
     40 C         0.777005   1.314191   2.078842 C.3        1 UNL1     0.0661
     41 C         1.756501   0.614318   0.883695 C.3        1 UNL1     0.0091
     42 C         3.444262   1.058028   0.318022 C.3        1 UNL1     0.0661
     43 C         7.18978   7.800879   -3.748234 C.2        1 UNL1     0.2131
     44 O         7.548824   8.732401   -4.445438 O.2        1 UNL1     -0.2851
     45 O         6.759182   10.263755   -2.477916 O.3        1 UNL1     -0.5056
     46 O         3.775427   4.870932   -0.406265 O.2        1 UNL1     -0.2836
     47 C         5.541694   1.438686   1.922295 C.3        1 UNL1     -0.0566
     48 O         3.948039   -0.336105   0.359458 O.3        1 UNL1     -0.3909
     49 C         0.922425   0.381784   -0.356361 C.3        1 UNL1     -0.0577
     50 O         1.332362   2.54391   2.499666 O.3        1 UNL1     -0.3910
     51 O         -0.942798   4.252363   2.327378 O.3        1 UNL1     -0.3753
     52 C         -0.058946   3.146126   -1.151001 C.3        1 UNL1     -0.0564
     53 O         -2.213442   0.893792   -0.15224 O.3        1 UNL1     -0.4608
     54 C         -2.381588   -0.432296   0.149663 C.2        1 UNL1     0.3042
     55 O         -1.774194   -1.389837   -0.327859 O.2        1 UNL1     -0.2512
     56 C         -3.395085   -0.679156   1.23068 C.3        1 UNL1     0.0332
     57 C         -1.625598   2.002728   3.335995 C.3        1 UNL1     -0.0567
     58 C         1.572256   7.245481   -1.010113 C.3        1 UNL1     0.0210
     59 C         -1.295913   5.398457   3.100453 C.3        1 UNL1     0.0372
     60 C         0.464708   5.169479   0.717823 C.2        1 UNL1     -0.0208
     61 C         1.366716   5.617207   1.592275 C.2        1 UNL1     0.0882
     62 H         4.604609   2.851982   0.615091 H        1 UNL1     0.0365
     63 H         6.209143   3.812935   -0.204829 H        1 UNL1     0.0576
     64 H         8.288147   1.800867   -1.266006 H        1 UNL1     0.0615
     65 H         8.098113   4.917077   -1.370772 H        1 UNL1     0.0622
     66 H         -1.612492   5.207758   0.655282 H        1 UNL1     0.0645
     67 H         -1.981546   3.526567   -0.584719 H        1 UNL1     0.0362
     68 H         -2.605397   2.321813   1.140201 H        1 UNL1     0.0741
     69 H         -1.179252   0.36761   2.223525 H        1 UNL1     0.0359
     70 H         0.921225   0.635923   2.94152 H        1 UNL1     0.0600
     71 H         1.843108   -0.415174   1.283196 H        1 UNL1     0.0348
     72 H         3.327051   1.515936   1.310945 H        1 UNL1     0.0602
     73 H         0.5668   5.398223   -0.313924 H        1 UNL1     0.0628
     74 H         1.365675   5.378118   2.656265 H        1 UNL1     0.1022
     75 H         10.833315   2.71978   -3.470015 H        1 UNL1     0.0279
     76 H         10.650696   3.959841   -4.645684 H        1 UNL1     0.0279
     77 H         11.760033   4.142202   -3.227441 H        1 UNL1     0.0279
     78 H         8.852261   5.239151   -4.956895 H        1 UNL1     0.1553
     79 H         7.634693   3.709741   -4.633387 H        1 UNL1     0.1484
     80 H         3.910812   2.96433   -4.762079 H        1 UNL1     0.0317
     81 H         4.581834   4.531223   -5.191613 H        1 UNL1     0.0317
     82 H         6.530237   3.446728   -6.341091 H        1 UNL1     0.0428
     83 H         4.989193   2.927069   -6.986723 H        1 UNL1     0.0428
     84 H         6.891277   0.289067   -4.243338 H        1 UNL1     0.0428
     85 H         7.742209   1.744873   -4.625004 H        1 UNL1     0.0428
     86 H         6.464514   1.710571   -2.482302 H        1 UNL1     0.0317
     87 H         4.972602   1.445507   -3.260949 H        1 UNL1     0.0317
     88 H         7.187213   1.310941   -7.405591 H        1 UNL1     0.0429
     89 H         6.888743   -0.212157   -6.564566 H        1 UNL1     0.0429
     90 H         4.310048   0.573432   -7.341325 H        1 UNL1     0.0308
     91 H         6.248001   1.387004   -9.585707 H        1 UNL1     0.0233
     92 H         4.481318   1.222466   -9.75079 H        1 UNL1     0.0233
     93 H         5.159429   2.477594   -8.736185 H        1 UNL1     0.0233
     94 H         4.612681   -1.133767   -9.172344 H        1 UNL1     0.0233
     95 H         6.311059   -1.239992   -8.683924 H        1 UNL1     0.0233
     96 H         5.026797   -1.676057   -7.533051 H        1 UNL1     0.0233
     97 H         3.742383   10.628186   0.148171 H        1 UNL1     0.0280
     98 H         5.325105   11.313375   -0.102217 H        1 UNL1     0.0280
     99 H         4.140326   11.304006   -1.442344 H        1 UNL1     0.0280
     100 H         6.260801   11.004191   -2.776233 H        1 UNL1     0.2922
     101 H         4.696806   0.96974   2.42619 H        1 UNL1     0.0236
     102 H         5.976444   2.242803   2.51506 H        1 UNL1     0.0236
     103 H         6.319747   0.657619   1.894714 H        1 UNL1     0.0236
     104 H         4.373622   -0.470221   1.228862 H        1 UNL1     0.2098
     105 H         0.711036   1.280423   -0.930448 H        1 UNL1     0.0234
     106 H         1.291062   -0.407196   -1.011757 H        1 UNL1     0.0234
     107 H         0.0   -0.0   0.0 H        1 UNL1     0.0234
     108 H         1.118096   3.207945   1.816354 H        1 UNL1     0.2098
     109 H         0.973408   3.075374   -0.780934 H        1 UNL1     0.0234
     110 H         -0.257265   2.321077   -1.843611 H        1 UNL1     0.0234
     111 H         -0.085833   4.040474   -1.787683 H        1 UNL1     0.0234
     112 H         -3.465381   -1.751446   1.437077 H        1 UNL1     0.0342
     113 H         -3.170379   -0.120535   2.138035 H        1 UNL1     0.0342
     114 H         -4.374927   -0.34146   0.865939 H        1 UNL1     0.0342
     115 H         -2.684418   1.711888   3.374722 H        1 UNL1     0.0234
     116 H         -1.171143   1.715239   4.28619 H        1 UNL1     0.0234
     117 H         -1.707437   3.103125   3.316753 H        1 UNL1     0.0234
     118 H         0.655569   7.684383   -0.57877 H        1 UNL1     0.0309
     119 H         1.911411   7.870641   -1.84219 H        1 UNL1     0.0309
     120 H         1.218073   6.310567   -1.457991 H        1 UNL1     0.0309
     121 H         -0.486155   6.121562   3.006811 H        1 UNL1     0.0524
     122 H         -2.216922   5.882226   2.734739 H        1 UNL1     0.0524
     123 H         -1.432708   5.121683   4.141979 H        1 UNL1     0.0524
@<TRIPOS>BOND
     1     1     2    1
     2     1    42    1
     3     2     3    2
     4     3     4    1
     5     4     5    2
     6     5     7    1
     7     6    75    1
     8     6    76    1
     9     6    77    1
    10     7     9   am
    11     9    10    1
    12    10    11    2
    13    10    43    1
    14    11    14    1
    15    11    15    1
    16    12    13   ar
    17    12    27   ar
    18    12    43    1
    19    13    14    1
    20    13    30   ar
    21    14    17    2
    22    15    16    1
    23    16    17    1
    24    16    18    1
    25    16    22    1
    26    18    19    1
    27    19    20    1
    28    20    21    1
    29    21    22    1
    30    23    24    1
    31    23    88    1
    32    23    89    1
    33    24    25    1
    34    24    26    1
    35    24    90    1
    36    25    91    1
    37    25    92    1
    38    25    93    1
    39    26    94    1
    40    26    95    1
    41    26    96    1
    42    27    28   ar
    43    28    29   ar
    44    29    30   ar
    45    29    31    1
    46    30    33    1
    47    31    32    1
    48    32    33    1
    49    32    35    1
    50    34    97    1
    51    34    98    1
    52    34    99    1
    53    35    61    1
    54    36    37    1
    55    36    60    1
    56    37    38    1
    57    38    39    1
    58    39    40    1
    59    40    41    1
    60    41    42    1
    61    45   100    1
    62    47   101    1
    63    47   102    1
    64    47   103    1
    65    48   104    1
    66    49   105    1
    67    49   106    1
    68    49   107    1
    69    50   108    1
    70    51    59    1
    71    52   109    1
    72    52   110    1
    73    52   111    1
    74    53    54    1
    75    54    55    2
    76    54    56    1
    77    56   112    1
    78    56   113    1
    79    56   114    1
    80    57   115    1
    81    57   116    1
    82    57   117    1
    83    58   118    1
    84    58   119    1
    85    58   120    1
    86    59   121    1
    87    59   122    1
    88    59   123    1
    89    60    61    2
    90     1    47    1
    91     1    62    1
    92     2    63    1
    93     3    64    1
    94     4    65    1
    95     5     6    1
    96     7     8    2
    97     9    78    1
    98    15    79    1
    99    18    80    1
   100    18    81    1
   101    19    82    1
   102    19    83    1
   103    20    23    1
   104    21    84    1
   105    21    85    1
   106    22    86    1
   107    22    87    1
   108    27    45    1
   109    28    34    1
   110    32    58    1
   111    33    46    2
   112    36    51    1
   113    36    66    1
   114    37    52    1
   115    37    67    1
   116    38    53    1
   117    38    68    1
   118    42    48    1
   119    42    72    1
   120    43    44    2
   121    60    73    1
   122    61    74    1
   123    39    69    1
   124    39    57    1
   125    40    70    1
   126    40    50    1
   127    41    71    1
   128    41    49    1
