@<TRIPOS>MOLECULE
*****
 123 128 0 0 0
SMALL
GASTEIGER

@<TRIPOS>ATOM
     1 C         3.620871   3.341629   1.879768 C.3        1 UNL1     0.0009
     2 C         4.375834   4.992821   1.504758 C.2        1 UNL1     -0.0787
     3 C         5.519376   5.792712   1.11936 C.2        1 UNL1     -0.0649
     4 C         5.56471   7.452889   0.790551 C.2        1 UNL1     -0.0542
     5 C         6.288741   8.49109   0.154158 C.2        1 UNL1     0.0115
     6 C         7.630398   8.840594   -0.546645 C.3        1 UNL1     -0.0348
     7 C         5.545665   9.880165   -0.154546 C.2        1 UNL1     0.2441
     8 O         5.704696   10.885166   0.524577 O.2        1 UNL1     -0.2702
     9 N         4.905087   9.940379   -1.40442 N.am        1 UNL1     -0.2772
     10 C         3.618723   9.461475   -1.308303 C.2        1 UNL1     0.1049
     11 C         3.479604   8.149756   -1.373577 C.2        1 UNL1     0.0801
     12 C         1.526545   9.65448   0.049223 C.ar        1 UNL1     0.0753
     13 C         1.537314   8.225239   0.125139 C.ar        1 UNL1     0.0305
     14 C         2.44149   7.422234   -0.695043 C.2        1 UNL1     0.0924
     15 N         4.36584   7.203712   -1.728703 N.pl3        1 UNL1     -0.3170
     16 C         3.664924   5.949089   -1.798649 C.3        1 UNL1     0.1275
     17 N         2.520178   6.101124   -0.826967 N.2        1 UNL1     -0.2557
     18 C         3.034519   5.86002   -3.185141 C.3        1 UNL1     0.0016
     19 C         4.127973   6.027262   -4.228203 C.3        1 UNL1     0.0026
     20 N         5.121707   4.98005   -4.036198 N.3        1 UNL1     -0.3018
     21 C         5.740642   4.94599   -2.709499 C.3        1 UNL1     0.0026
     22 C         4.624703   4.772761   -1.677722 C.3        1 UNL1     0.0016
     23 C         6.041726   4.86457   -5.150142 C.3        1 UNL1     0.0012
     24 C         5.517095   5.645674   -6.365212 C.3        1 UNL1     -0.0339
     25 C         5.894902   4.953008   -7.684883 C.3        1 UNL1     -0.0615
     26 C         4.015909   5.84437   -6.247987 C.3        1 UNL1     -0.0615
     27 C         0.581438   10.406968   0.742514 C.ar        1 UNL1     0.1347
     28 C         -0.422817   9.842911   1.508909 C.ar        1 UNL1     0.0342
     29 C         -0.362694   8.436618   1.608355 C.ar        1 UNL1     0.1435
     30 C         0.600192   7.671885   0.948617 C.ar        1 UNL1     0.0774
     31 O         -1.334319   7.731757   2.228132 O.3        1 UNL1     -0.4436
     32 C         -1.188325   6.394548   1.726705 C.3        1 UNL1     0.3143
     33 C         0.250098   6.301591   1.259252 C.2        1 UNL1     0.2504
     34 C         -1.613861   10.566682   2.072531 C.3        1 UNL1     -0.0327
     35 O         -1.32304   5.504486   2.841556 O.2        1 UNL1     -0.4528
     36 C         -2.789528   2.296034   1.440363 C.3        1 UNL1     0.0854
     37 C         -2.234474   1.363414   0.29596 C.3        1 UNL1     0.0236
     38 C         -2.043133   -0.173968   0.710195 C.3        1 UNL1     0.1131
     39 C         -1.243068   -0.539105   2.025049 C.3        1 UNL1     0.0200
     40 C         0.182395   0.245628   2.392044 C.3        1 UNL1     0.0661
     41 C         1.493659   0.468293   1.339135 C.3        1 UNL1     0.0091
     42 C         2.705204   1.840735   1.220959 C.3        1 UNL1     0.0661
     43 C         2.499385   10.30494   -0.863325 C.2        1 UNL1     0.2131
     44 O         2.352312   11.425882   -1.315648 O.2        1 UNL1     -0.2851
     45 O         0.668664   11.794599   0.651355 O.3        1 UNL1     -0.5056
     46 O         0.955379   5.320545   1.181916 O.2        1 UNL1     -0.2836
     47 C         4.085165   2.84047   3.273774 C.3        1 UNL1     -0.0566
     48 O         3.885086   0.945009   1.152625 O.3        1 UNL1     -0.3909
     49 C         1.046721   0.151667   -0.070648 C.3        1 UNL1     -0.0577
     50 O         -0.071743   1.438539   3.106257 O.3        1 UNL1     -0.3910
     51 O         -2.882599   1.712094   2.720122 O.3        1 UNL1     -0.3753
     52 C         -1.210475   2.111434   -0.618831 C.3        1 UNL1     -0.0564
     53 O         -1.857626   -1.093073   -0.461624 O.3        1 UNL1     -0.4608
     54 C         -1.022957   -2.179392   -0.495772 C.2        1 UNL1     0.3042
     55 O         -1.31417   -3.352528   -0.266017 O.2        1 UNL1     -0.2512
     56 C         0.379056   -1.847442   -0.921075 C.3        1 UNL1     0.0332
     57 C         -2.310184   -0.734566   3.200308 C.3        1 UNL1     -0.0567
     58 C         -2.120417   6.284061   0.49767 C.3        1 UNL1     0.0210
     59 C         -4.212111   1.432594   3.156178 C.3        1 UNL1     0.0372
     60 C         -2.064431   3.584901   1.608349 C.2        1 UNL1     -0.0208
     61 C         -1.644483   4.202886   2.713103 C.2        1 UNL1     0.0882
     62 H         2.655351   3.839031   2.031669 H        1 UNL1     0.0365
     63 H         3.537949   5.655761   1.730434 H        1 UNL1     0.0576
     64 H         6.469954   5.334166   0.837853 H        1 UNL1     0.0615
     65 H         4.611003   7.821428   1.177985 H        1 UNL1     0.0622
     66 H         -3.804255   2.561739   1.112071 H        1 UNL1     0.0645
     67 H         -3.069615   1.294789   -0.422643 H        1 UNL1     0.0362
     68 H         -3.090122   -0.438899   0.922676 H        1 UNL1     0.0741
     69 H         -0.935923   -1.574938   1.969207 H        1 UNL1     0.0359
     70 H         0.592542   -0.448648   3.150214 H        1 UNL1     0.0600
     71 H         2.092876   -0.430592   1.583886 H        1 UNL1     0.0348
     72 H         2.262013   1.913056   2.224785 H        1 UNL1     0.0602
     73 H         -2.007145   4.078282   0.669977 H        1 UNL1     0.0628
     74 H         -1.61525   3.745155   3.702479 H        1 UNL1     0.1022
     75 H         8.495088   8.469375   0.054639 H        1 UNL1     0.0279
     76 H         7.80513   8.380884   -1.516802 H        1 UNL1     0.0279
     77 H         7.829765   9.92202   -0.568335 H        1 UNL1     0.0279
     78 H         5.401387   9.353498   -2.071754 H        1 UNL1     0.1553
     79 H         5.199448   7.390882   -2.255008 H        1 UNL1     0.1484
     80 H         2.528962   4.892083   -3.286511 H        1 UNL1     0.0317
     81 H         2.266591   6.62996   -3.316018 H        1 UNL1     0.0317
     82 H         4.589218   7.024592   -4.178209 H        1 UNL1     0.0428
     83 H         3.656397   5.962277   -5.209245 H        1 UNL1     0.0428
     84 H         6.423382   4.102814   -2.565512 H        1 UNL1     0.0428
     85 H         6.366841   5.830385   -2.527735 H        1 UNL1     0.0428
     86 H         5.120999   4.618837   -0.737516 H        1 UNL1     0.0317
     87 H         4.101825   3.823545   -1.847087 H        1 UNL1     0.0317
     88 H         7.003436   5.297416   -4.845097 H        1 UNL1     0.0429
     89 H         6.22865   3.813592   -5.405637 H        1 UNL1     0.0429
     90 H         5.953563   6.651504   -6.361363 H        1 UNL1     0.0308
     91 H         5.694784   3.878221   -7.641436 H        1 UNL1     0.0233
     92 H         5.342002   5.387237   -8.521159 H        1 UNL1     0.0233
     93 H         6.958034   5.069076   -7.928016 H        1 UNL1     0.0233
     94 H         3.633917   6.366819   -7.131709 H        1 UNL1     0.0233
     95 H         3.514307   4.874525   -6.186679 H        1 UNL1     0.0233
     96 H         3.759071   6.431266   -5.361671 H        1 UNL1     0.0233
     97 H         -2.550817   10.142379   1.724233 H        1 UNL1     0.0280
     98 H         -1.649312   10.514417   3.168554 H        1 UNL1     0.0280
     99 H         -1.579959   11.625719   1.76858 H        1 UNL1     0.0280
     100 H         1.528159   12.144049   0.808754 H        1 UNL1     0.2922
     101 H         3.277439   2.960619   3.995437 H        1 UNL1     0.0236
     102 H         5.008802   3.309002   3.61194 H        1 UNL1     0.0236
     103 H         4.302106   1.759207   3.273985 H        1 UNL1     0.0236
     104 H         4.197789   0.939225   0.226799 H        1 UNL1     0.2098
     105 H         1.219485   0.951117   -0.78678 H        1 UNL1     0.0234
     106 H         1.417504   -0.794682   -0.464183 H        1 UNL1     0.0234
     107 H         0.0   -0.0   0.0 H        1 UNL1     0.0234
     108 H         -0.425608   2.088443   2.46894 H        1 UNL1     0.2098
     109 H         -1.65882   2.979585   -1.121833 H        1 UNL1     0.0234
     110 H         -0.305534   2.423435   -0.086401 H        1 UNL1     0.0234
     111 H         -0.836407   1.462888   -1.422204 H        1 UNL1     0.0234
     112 H         0.733349   -2.587371   -1.645179 H        1 UNL1     0.0342
     113 H         0.45693   -0.838559   -1.323485 H        1 UNL1     0.0342
     114 H         1.028395   -1.90406   -0.036587 H        1 UNL1     0.0342
     115 H         -1.987772   -1.497795   3.921918 H        1 UNL1     0.0234
     116 H         -2.525198   0.177327   3.760905 H        1 UNL1     0.0234
     117 H         -3.269961   -1.157674   2.857164 H        1 UNL1     0.0234
     118 H         -2.984711   5.624724   0.690742 H        1 UNL1     0.0309
     119 H         -2.482377   7.2548   0.144325 H        1 UNL1     0.0309
     120 H         -1.629865   5.812532   -0.36089 H        1 UNL1     0.0309
     121 H         -4.498476   2.212196   3.861567 H        1 UNL1     0.0524
     122 H         -4.937704   1.453186   2.326041 H        1 UNL1     0.0524
     123 H         -4.253304   0.459051   3.636397 H        1 UNL1     0.0524
@<TRIPOS>BOND
     1     1     2    1
     2     1    42    1
     3     2     3    2
     4     3     4    1
     5     4     5    2
     6     5     7    1
     7     6    75    1
     8     6    76    1
     9     6    77    1
    10     7     9   am
    11     9    10    1
    12    10    11    2
    13    10    43    1
    14    11    14    1
    15    11    15    1
    16    12    13   ar
    17    12    27   ar
    18    12    43    1
    19    13    14    1
    20    13    30   ar
    21    14    17    2
    22    15    16    1
    23    16    17    1
    24    16    18    1
    25    16    22    1
    26    18    19    1
    27    19    20    1
    28    20    21    1
    29    21    22    1
    30    23    24    1
    31    23    88    1
    32    23    89    1
    33    24    25    1
    34    24    26    1
    35    24    90    1
    36    25    91    1
    37    25    92    1
    38    25    93    1
    39    26    94    1
    40    26    95    1
    41    26    96    1
    42    27    28   ar
    43    28    29   ar
    44    29    30   ar
    45    29    31    1
    46    30    33    1
    47    31    32    1
    48    32    33    1
    49    32    35    1
    50    34    97    1
    51    34    98    1
    52    34    99    1
    53    35    61    1
    54    36    37    1
    55    36    60    1
    56    37    38    1
    57    38    39    1
    58    39    40    1
    59    40    41    1
    60    41    42    1
    61    45   100    1
    62    47   101    1
    63    47   102    1
    64    47   103    1
    65    48   104    1
    66    49   105    1
    67    49   106    1
    68    49   107    1
    69    50   108    1
    70    51    59    1
    71    52   109    1
    72    52   110    1
    73    52   111    1
    74    53    54    1
    75    54    55    2
    76    54    56    1
    77    56   112    1
    78    56   113    1
    79    56   114    1
    80    57   115    1
    81    57   116    1
    82    57   117    1
    83    58   118    1
    84    58   119    1
    85    58   120    1
    86    59   121    1
    87    59   122    1
    88    59   123    1
    89    60    61    2
    90     1    47    1
    91     1    62    1
    92     2    63    1
    93     3    64    1
    94     4    65    1
    95     5     6    1
    96     7     8    2
    97     9    78    1
    98    15    79    1
    99    18    80    1
   100    18    81    1
   101    19    82    1
   102    19    83    1
   103    20    23    1
   104    21    84    1
   105    21    85    1
   106    22    86    1
   107    22    87    1
   108    27    45    1
   109    28    34    1
   110    32    58    1
   111    33    46    2
   112    36    51    1
   113    36    66    1
   114    37    52    1
   115    37    67    1
   116    38    53    1
   117    38    68    1
   118    42    48    1
   119    42    72    1
   120    43    44    2
   121    60    73    1
   122    61    74    1
   123    39    69    1
   124    39    57    1
   125    40    70    1
   126    40    50    1
   127    41    71    1
   128    41    49    1
