@<TRIPOS>MOLECULE
*****
 123 128 0 0 0
SMALL
GASTEIGER

@<TRIPOS>ATOM
     1 C         5.116749   1.893784   0.494178 C.3        1 UNL1     0.0009
     2 C         6.512604   2.779335   -0.345123 C.2        1 UNL1     -0.0787
     3 C         7.791378   2.750473   -1.02332 C.2        1 UNL1     -0.0649
     4 C         8.612248   4.039623   -1.751758 C.2        1 UNL1     -0.0542
     5 C         9.611412   4.398029   -2.689998 C.2        1 UNL1     0.0115
     6 C         10.75581   3.841769   -3.581206 C.3        1 UNL1     -0.0348
     7 C         9.642289   5.89973   -3.256504 C.2        1 UNL1     0.2441
     8 O         10.436195   6.743176   -2.86301 O.2        1 UNL1     -0.2702
     9 N         8.87401   6.108035   -4.41517 N.am        1 UNL1     -0.2772
     10 C         7.579789   6.434516   -4.080919 C.2        1 UNL1     0.1049
     11 C         6.775931   5.422542   -3.808993 C.2        1 UNL1     0.0801
     12 C         6.231197   7.949334   -2.616692 C.ar        1 UNL1     0.0753
     13 C         5.521606   6.780312   -2.194227 C.ar        1 UNL1     0.0305
     14 C         5.684587   5.498213   -2.875924 C.2        1 UNL1     0.0924
     15 N         6.949863   4.104304   -4.005269 N.pl3        1 UNL1     -0.3170
     16 C         5.707684   3.446585   -3.697618 C.3        1 UNL1     0.1275
     17 N         5.042585   4.348832   -2.687016 N.2        1 UNL1     -0.2557
     18 C         4.841913   3.50557   -4.952474 C.3        1 UNL1     0.0016
     19 C         5.613286   2.882897   -6.105232 C.3        1 UNL1     0.0026
     20 N         5.941436   1.506793   -5.759279 N.3        1 UNL1     -0.3018
     21 C         6.721601   1.343681   -4.530822 C.3        1 UNL1     0.0026
     22 C         5.926059   1.972026   -3.385313 C.3        1 UNL1     0.0016
     23 C         6.408247   0.735912   -6.894388 C.3        1 UNL1     0.0012
     24 C         5.25491   0.467015   -7.87381 C.3        1 UNL1     -0.0339
     25 C         5.28204   1.447969   -9.05747 C.3        1 UNL1     -0.0615
     26 C         5.296301   -0.976814   -8.343302 C.3        1 UNL1     -0.0615
     27 C         5.981127   9.192815   -2.041073 C.ar        1 UNL1     0.1347
     28 C         5.020721   9.397812   -1.066575 C.ar        1 UNL1     0.0342
     29 C         4.368954   8.224214   -0.631799 C.ar        1 UNL1     0.1435
     30 C         4.634669   6.966084   -1.173763 C.ar        1 UNL1     0.0774
     31 O         3.331934   8.273008   0.232618 O.3        1 UNL1     -0.4436
     32 C         2.658598   7.016602   0.062519 C.3        1 UNL1     0.3143
     33 C         3.705782   6.079518   -0.504484 C.2        1 UNL1     0.2504
     34 C         4.52388   10.732577   -0.585271 C.3        1 UNL1     -0.0327
     35 O         2.327379   6.530496   1.369136 O.2        1 UNL1     -0.4528
     36 C         -0.839703   4.481589   0.945274 C.3        1 UNL1     0.0854
     37 C         -1.102658   3.234462   0.016268 C.3        1 UNL1     0.0236
     38 C         -1.645542   1.929627   0.774178 C.3        1 UNL1     0.1131
     39 C         -0.88765   1.393237   2.054864 C.3        1 UNL1     0.0200
     40 C         0.778316   1.313171   2.078996 C.3        1 UNL1     0.0661
     41 C         1.757009   0.615108   0.882134 C.3        1 UNL1     0.0091
     42 C         3.443725   1.060725   0.314843 C.3        1 UNL1     0.0661
     43 C         7.17869   7.810082   -3.750325 C.2        1 UNL1     0.2131
     44 O         7.536117   8.742476   -4.447192 O.2        1 UNL1     -0.2851
     45 O         6.747472   10.271557   -2.477503 O.3        1 UNL1     -0.5056
     46 O         3.770772   4.874497   -0.406736 O.2        1 UNL1     -0.2836
     47 C         5.54271   1.44188   1.916964 C.3        1 UNL1     -0.0566
     48 O         3.948744   -0.333009   0.354557 O.3        1 UNL1     -0.3909
     49 C         0.921678   0.382865   -0.357132 C.3        1 UNL1     -0.0577
     50 O         1.333112   2.543024   2.500167 O.3        1 UNL1     -0.3910
     51 O         -0.943711   4.249664   2.331933 O.3        1 UNL1     -0.3753
     52 C         -0.062993   3.147006   -1.148376 C.3        1 UNL1     -0.0564
     53 O         -2.214384   0.892016   -0.148919 O.3        1 UNL1     -0.4608
     54 C         -2.393615   -0.431744   0.1568 C.2        1 UNL1     0.3042
     55 O         -1.789184   -1.395156   -0.312603 O.2        1 UNL1     -0.2512
     56 C         -3.416608   -0.667655   1.231297 C.3        1 UNL1     0.0332
     57 C         -1.6234   1.998627   3.339524 C.3        1 UNL1     -0.0567
     58 C         1.56486   7.247645   -1.006072 C.3        1 UNL1     0.0210
     59 C         -1.296901   5.394827   3.106352 C.3        1 UNL1     0.0372
     60 C         0.461119   5.169292   0.721475 C.2        1 UNL1     -0.0208
     61 C         1.363768   5.617084   1.595232 C.2        1 UNL1     0.0882
     62 H         4.602882   2.855432   0.612008 H        1 UNL1     0.0365
     63 H         6.205629   3.818426   -0.209012 H        1 UNL1     0.0576
     64 H         8.28511   1.809003   -1.274259 H        1 UNL1     0.0615
     65 H         8.092282   4.925134   -1.376272 H        1 UNL1     0.0622
     66 H         -1.616185   5.205839   0.6614 H        1 UNL1     0.0645
     67 H         -1.985252   3.525339   -0.579533 H        1 UNL1     0.0362
     68 H         -2.606046   2.318651   1.145139 H        1 UNL1     0.0741
     69 H         -1.176957   0.364795   2.225203 H        1 UNL1     0.0359
     70 H         0.924129   0.634327   2.940953 H        1 UNL1     0.0600
     71 H         1.844967   -0.414633   1.280697 H        1 UNL1     0.0348
     72 H         3.327286   1.517727   1.308275 H        1 UNL1     0.0602
     73 H         0.561805   5.398961   -0.310205 H        1 UNL1     0.0628
     74 H         1.36418   5.377132   2.659027 H        1 UNL1     0.1022
     75 H         10.826902   2.731887   -3.480503 H        1 UNL1     0.0279
     76 H         10.641842   3.972744   -4.65495 H        1 UNL1     0.0279
     77 H         11.752685   4.154906   -3.237861 H        1 UNL1     0.0279
     78 H         8.841947   5.250762   -4.963014 H        1 UNL1     0.1553
     79 H         7.626071   3.720046   -4.639321 H        1 UNL1     0.1484
     80 H         3.902681   2.971545   -4.764252 H        1 UNL1     0.0317
     81 H         4.571856   4.539361   -5.1933 H        1 UNL1     0.0317
     82 H         6.519838   3.45747   -6.345942 H        1 UNL1     0.0428
     83 H         4.978483   2.937013   -6.990188 H        1 UNL1     0.0428
     84 H         6.886045   0.29842   -4.251178 H        1 UNL1     0.0428
     85 H         7.73528   1.755265   -4.632659 H        1 UNL1     0.0428
     86 H         6.46013   1.718129   -2.488489 H        1 UNL1     0.0317
     87 H         4.967533   1.452417   -3.265602 H        1 UNL1     0.0317
     88 H         7.177395   1.323112   -7.412945 H        1 UNL1     0.0429
     89 H         6.881217   -0.200923   -6.572807 H        1 UNL1     0.0429
     90 H         4.300941   0.583083   -7.345905 H        1 UNL1     0.0308
     91 H         6.235562   1.400137   -9.591896 H        1 UNL1     0.0233
     92 H         4.468827   1.234217   -9.755041 H        1 UNL1     0.0233
     93 H         5.147052   2.489103   -8.740213 H        1 UNL1     0.0233
     94 H         4.602888   -1.122371   -9.178663 H        1 UNL1     0.0233
     95 H         6.301929   -1.227534   -8.69232 H        1 UNL1     0.0233
     96 H         5.019392   -1.665634   -7.540297 H        1 UNL1     0.0233
     97 H         3.733444   10.631269   0.152413 H        1 UNL1     0.0280
     98 H         5.315283   11.318019   -0.099274 H        1 UNL1     0.0280
     99 H         4.128942   11.30872   -1.438018 H        1 UNL1     0.0280
     100 H         6.248107   11.011807   -2.774635 H        1 UNL1     0.2922
     101 H         4.698815   0.971802   2.421469 H        1 UNL1     0.0236
     102 H         5.977466   2.24589   2.509872 H        1 UNL1     0.0236
     103 H         6.321399   0.661504   1.887837 H        1 UNL1     0.0236
     104 H         4.375461   -0.467464   1.223351 H        1 UNL1     0.2098
     105 H         0.708847   1.281786   -0.930241 H        1 UNL1     0.0234
     106 H         1.290223   -0.405267   -1.0136 H        1 UNL1     0.0234
     107 H         0.0   -0.0   0.0 H        1 UNL1     0.0234
     108 H         1.117476   3.207429   1.817646 H        1 UNL1     0.2098
     109 H         0.969855   3.07684   -0.779577 H        1 UNL1     0.0234
     110 H         -0.261416   2.32235   -1.841423 H        1 UNL1     0.0234
     111 H         -0.091392   4.041848   -1.7843 H        1 UNL1     0.0234
     112 H         -3.495595   -1.738646   1.441262 H        1 UNL1     0.0342
     113 H         -3.194792   -0.107045   2.138137 H        1 UNL1     0.0342
     114 H         -4.391476   -0.324837   0.858103 H        1 UNL1     0.0342
     115 H         -2.681924   1.706847   3.379256 H        1 UNL1     0.0234
     116 H         -1.167584   1.710757   4.288951 H        1 UNL1     0.0234
     117 H         -1.706205   3.098968   3.321271 H        1 UNL1     0.0234
     118 H         0.648304   7.685409   -0.573299 H        1 UNL1     0.0309
     119 H         1.902503   7.873769   -1.838038 H        1 UNL1     0.0309
     120 H         1.210953   6.31279   -1.454294 H        1 UNL1     0.0309
     121 H         -0.487874   6.118702   3.012348 H        1 UNL1     0.0524
     122 H         -2.218753   5.878102   2.742111 H        1 UNL1     0.0524
     123 H         -1.432238   5.117091   4.147813 H        1 UNL1     0.0524
@<TRIPOS>BOND
     1     1     2    1
     2     1    42    1
     3     2     3    2
     4     3     4    1
     5     4     5    2
     6     5     7    1
     7     6    75    1
     8     6    76    1
     9     6    77    1
    10     7     9   am
    11     9    10    1
    12    10    11    2
    13    10    43    1
    14    11    14    1
    15    11    15    1
    16    12    13   ar
    17    12    27   ar
    18    12    43    1
    19    13    14    1
    20    13    30   ar
    21    14    17    2
    22    15    16    1
    23    16    17    1
    24    16    18    1
    25    16    22    1
    26    18    19    1
    27    19    20    1
    28    20    21    1
    29    21    22    1
    30    23    24    1
    31    23    88    1
    32    23    89    1
    33    24    25    1
    34    24    26    1
    35    24    90    1
    36    25    91    1
    37    25    92    1
    38    25    93    1
    39    26    94    1
    40    26    95    1
    41    26    96    1
    42    27    28   ar
    43    28    29   ar
    44    29    30   ar
    45    29    31    1
    46    30    33    1
    47    31    32    1
    48    32    33    1
    49    32    35    1
    50    34    97    1
    51    34    98    1
    52    34    99    1
    53    35    61    1
    54    36    37    1
    55    36    60    1
    56    37    38    1
    57    38    39    1
    58    39    40    1
    59    40    41    1
    60    41    42    1
    61    45   100    1
    62    47   101    1
    63    47   102    1
    64    47   103    1
    65    48   104    1
    66    49   105    1
    67    49   106    1
    68    49   107    1
    69    50   108    1
    70    51    59    1
    71    52   109    1
    72    52   110    1
    73    52   111    1
    74    53    54    1
    75    54    55    2
    76    54    56    1
    77    56   112    1
    78    56   113    1
    79    56   114    1
    80    57   115    1
    81    57   116    1
    82    57   117    1
    83    58   118    1
    84    58   119    1
    85    58   120    1
    86    59   121    1
    87    59   122    1
    88    59   123    1
    89    60    61    2
    90     1    47    1
    91     1    62    1
    92     2    63    1
    93     3    64    1
    94     4    65    1
    95     5     6    1
    96     7     8    2
    97     9    78    1
    98    15    79    1
    99    18    80    1
   100    18    81    1
   101    19    82    1
   102    19    83    1
   103    20    23    1
   104    21    84    1
   105    21    85    1
   106    22    86    1
   107    22    87    1
   108    27    45    1
   109    28    34    1
   110    32    58    1
   111    33    46    2
   112    36    51    1
   113    36    66    1
   114    37    52    1
   115    37    67    1
   116    38    53    1
   117    38    68    1
   118    42    48    1
   119    42    72    1
   120    43    44    2
   121    60    73    1
   122    61    74    1
   123    39    69    1
   124    39    57    1
   125    40    70    1
   126    40    50    1
   127    41    71    1
   128    41    49    1
