@<TRIPOS>MOLECULE
*****
 123 128 0 0 0
SMALL
GASTEIGER

@<TRIPOS>ATOM
     1 C         2.47881   3.786715   2.217292 C.3        1 UNL1     0.0009
     2 C         2.643907   5.616835   1.971447 C.2        1 UNL1     -0.0787
     3 C         3.45486   6.773461   1.654243 C.2        1 UNL1     -0.0649
     4 C         2.947551   8.375802   1.450531 C.2        1 UNL1     -0.0542
     5 C         3.279524   9.637423   0.898096 C.2        1 UNL1     0.0115
     6 C         4.419425   10.457785   0.234053 C.3        1 UNL1     -0.0348
     7 C         2.116707   10.724234   0.689083 C.2        1 UNL1     0.2441
     8 O         1.950034   11.673643   1.442322 O.2        1 UNL1     -0.2702
     9 N         1.468925   10.661476   -0.556947 N.am        1 UNL1     -0.2772
     10 C         0.412551   9.781295   -0.505189 C.2        1 UNL1     0.1049
     11 C         0.709832   8.504975   -0.66906 C.2        1 UNL1     0.0801
     12 C         -1.602018   9.177887   0.849339 C.ar        1 UNL1     0.0753
     13 C         -1.122045   7.829821   0.818465 C.ar        1 UNL1     0.0305
     14 C         -0.019866   7.429822   -0.05346 C.2        1 UNL1     0.0924
     15 N         1.850486   7.930604   -1.088025 N.pl3        1 UNL1     -0.3170
     16 C         1.598299   6.524027   -1.255944 C.3        1 UNL1     0.1275
     17 N         0.485006   6.220978   -0.283081 N.2        1 UNL1     -0.2557
     18 C         1.006542   6.333928   -2.649281 C.3        1 UNL1     0.0016
     19 C         1.965436   6.926029   -3.669833 C.3        1 UNL1     0.0026
     20 N         3.250841   6.251926   -3.550054 N.3        1 UNL1     -0.3018
     21 C         3.871019   6.326636   -2.225605 C.3        1 UNL1     0.0026
     22 C         2.892639   5.722337   -1.216898 C.3        1 UNL1     0.0016
     23 C         4.137265   6.525983   -4.663512 C.3        1 UNL1     0.0012
     24 C         5.307174   7.415524   -4.214306 C.3        1 UNL1     -0.0339
     25 C         5.746195   8.37461   -5.332998 C.3        1 UNL1     -0.0615
     26 C         4.933825   8.16695   -2.948309 C.3        1 UNL1     -0.0615
     27 C         -2.728634   9.526088   1.590694 C.ar        1 UNL1     0.1347
     28 C         -3.478308   8.609622   2.306326 C.ar        1 UNL1     0.0342
     29 C         -2.958805   7.297657   2.300949 C.ar        1 UNL1     0.1435
     30 C         -1.810764   6.941321   1.592254 C.ar        1 UNL1     0.0774
     31 O         -3.634204   6.269934   2.86008 O.3        1 UNL1     -0.4436
     32 C         -3.067267   5.094845   2.261229 C.3        1 UNL1     0.3143
     33 C         -1.686667   5.513301   1.797495 C.2        1 UNL1     0.2504
     34 C         -4.830207   8.859481   2.914636 C.3        1 UNL1     -0.0327
     35 O         -2.882336   4.131404   3.30566 O.2        1 UNL1     -0.4528
     36 C         -3.241806   0.730091   1.659472 C.3        1 UNL1     0.0854
     37 C         -2.432883   0.116985   0.452298 C.3        1 UNL1     0.0236
     38 C         -1.740687   -1.298236   0.751895 C.3        1 UNL1     0.1131
     39 C         -0.841129   -1.475038   2.041006 C.3        1 UNL1     0.0200
     40 C         0.254915   -0.294799   2.474783 C.3        1 UNL1     0.0661
     41 C         1.401208   0.421696   1.449961 C.3        1 UNL1     0.0091
     42 C         2.093662   2.120475   1.442394 C.3        1 UNL1     0.0661
     43 C         -0.91302   10.176032   -0.005792 C.2        1 UNL1     0.2131
     44 O         -1.427622   11.216335   -0.374157 O.2        1 UNL1     -0.2851
     45 O         -3.102685   10.868232   1.6039 O.3        1 UNL1     -0.5056
     46 O         -0.700366   4.826408   1.651752 O.2        1 UNL1     -0.2836
     47 C         3.107234   3.365865   3.573002 C.3        1 UNL1     -0.0566
     48 O         3.500472   1.669039   1.315077 O.3        1 UNL1     -0.3909
     49 C         1.056901   0.079182   0.01761 C.3        1 UNL1     -0.0577
     50 O         -0.362973   0.693445   3.274351 O.3        1 UNL1     -0.3910
     51 O         -3.114834   0.056654   2.891459 O.3        1 UNL1     -0.3753
     52 C         -1.727576   1.223966   -0.397458 C.3        1 UNL1     -0.0564
     53 O         -1.285769   -2.0179   -0.484009 O.3        1 UNL1     -0.4608
     54 C         -0.142061   -2.76479   -0.593637 C.2        1 UNL1     0.3042
     55 O         0.914398   -2.438187   -1.133139 O.2        1 UNL1     -0.2512
     56 C         -0.228643   -4.100808   0.087739 C.3        1 UNL1     0.0332
     57 C         -1.763468   -2.094671   3.19145 C.3        1 UNL1     -0.0567
     58 C         -3.934085   4.774134   1.02135 C.3        1 UNL1     0.0210
     59 C         -4.271069   -0.674567   3.296801 C.3        1 UNL1     0.0372
     60 C         -2.976199   2.169736   1.927867 C.2        1 UNL1     -0.0208
     61 C         -2.761755   2.809367   3.078358 C.2        1 UNL1     0.0882
     62 H         1.406563   3.927283   2.399611 H        1 UNL1     0.0365
     63 H         1.639328   5.94984   2.240514 H        1 UNL1     0.0576
     64 H         4.497876   6.673995   1.345485 H        1 UNL1     0.0615
     65 H         1.933023   8.381779   1.858182 H        1 UNL1     0.0622
     66 H         -4.293421   0.671161   1.345339 H        1 UNL1     0.0645
     67 H         -3.212462   -0.169545   -0.274831 H        1 UNL1     0.0362
     68 H         -2.638935   -1.906783   0.937212 H        1 UNL1     0.0741
     69 H         -0.212553   -2.345753   1.910025 H        1 UNL1     0.0359
     70 H         0.883801   -0.869132   3.181681 H        1 UNL1     0.0600
     71 H         2.266312   -0.246012   1.630843 H        1 UNL1     0.0348
     72 H         1.669768   1.970253   2.445919 H        1 UNL1     0.0602
     73 H         -3.101023   2.721349   1.029318 H        1 UNL1     0.0628
     74 H         -2.565952   2.31602   4.03099 H        1 UNL1     0.1022
     75 H         5.370483   10.343193   0.807981 H        1 UNL1     0.0279
     76 H         4.713272   10.156344   -0.768871 H        1 UNL1     0.0279
     77 H         4.255982   11.543446   0.299834 H        1 UNL1     0.0279
     78 H         2.117804   10.320071   -1.262976 H        1 UNL1     0.1553
     79 H         2.566897   8.418674   -1.593473 H        1 UNL1     0.1484
     80 H         0.844356   5.263752   -2.825875 H        1 UNL1     0.0317
     81 H         0.026425   6.816557   -2.727326 H        1 UNL1     0.0317
     82 H         2.075188   8.013076   -3.542566 H        1 UNL1     0.0428
     83 H         1.523263   6.781298   -4.656031 H        1 UNL1     0.0428
     84 H         4.79491   5.746123   -2.140504 H        1 UNL1     0.0428
     85 H         4.176018   7.351885   -1.974293 H        1 UNL1     0.0428
     86 H         3.429155   5.671973   -0.287596 H        1 UNL1     0.0317
     87 H         2.706708   4.669046   -1.460012 H        1 UNL1     0.0317
     88 H         4.542175   5.57018   -5.02098 H        1 UNL1     0.0429
     89 H         3.594617   6.979459   -5.502956 H        1 UNL1     0.0429
     90 H         6.159004   6.779811   -3.945106 H        1 UNL1     0.0308
     91 H         4.88477   8.85935   -5.80212 H        1 UNL1     0.0233
     92 H         6.420211   9.140712   -4.942614 H        1 UNL1     0.0233
     93 H         6.296129   7.861417   -6.131147 H        1 UNL1     0.0233
     94 H         5.562013   9.057549   -2.838539 H        1 UNL1     0.0233
     95 H         3.891631   8.494001   -3.001528 H        1 UNL1     0.0233
     96 H         5.062653   7.541623   -2.060425 H        1 UNL1     0.0233
     97 H         -5.582591   8.177664   2.529572 H        1 UNL1     0.0280
     98 H         -4.826428   8.719038   4.003451 H        1 UNL1     0.0280
     99 H         -5.150846   9.890099   2.690782 H        1 UNL1     0.0280
     100 H         -2.404666   11.467273   1.802752 H        1 UNL1     0.2922
     101 H         2.318139   3.161259   4.296273 H        1 UNL1     0.0236
     102 H         3.832146   4.08584   3.951317 H        1 UNL1     0.0236
     103 H         3.666765   2.418839   3.493873 H        1 UNL1     0.0236
     104 H         3.603584   0.866798   1.863482 H        1 UNL1     0.2098
     105 H         1.345954   0.836177   -0.70711 H        1 UNL1     0.0234
     106 H         1.393759   -0.904593   -0.308949 H        1 UNL1     0.0234
     107 H         0.0   -0.0   0.0 H        1 UNL1     0.0234
     108 H         -0.812393   0.232952   4.009018 H        1 UNL1     0.2098
     109 H         -2.44484   1.930994   -0.83718 H        1 UNL1     0.0234
     110 H         -0.965246   1.776139   0.162633 H        1 UNL1     0.0234
     111 H         -1.176446   0.794249   -1.244538 H        1 UNL1     0.0234
     112 H         0.720172   -4.635284   -0.019178 H        1 UNL1     0.0342
     113 H         -0.50915   -4.008553   1.135903 H        1 UNL1     0.0342
     114 H         -1.006734   -4.69219   -0.414265 H        1 UNL1     0.0342
     115 H         -1.467782   -3.122609   3.442647 H        1 UNL1     0.0234
     116 H         -1.764899   -1.517619   4.118303 H        1 UNL1     0.0234
     117 H         -2.812121   -2.244224   2.881768 H        1 UNL1     0.0234
     118 H         -4.530858   3.855493   1.159068 H        1 UNL1     0.0309
     119 H         -4.600622   5.595264   0.739081 H        1 UNL1     0.0309
     120 H         -3.331951   4.55337   0.133203 H        1 UNL1     0.0309
     121 H         -4.2499   -0.748853   4.383718 H        1 UNL1     0.0524
     122 H         -5.207932   -0.164576   3.017098 H        1 UNL1     0.0524
     123 H         -4.263355   -1.666116   2.853106 H        1 UNL1     0.0524
@<TRIPOS>BOND
     1     1     2    1
     2     1    42    1
     3     2     3    2
     4     3     4    1
     5     4     5    2
     6     5     7    1
     7     6    75    1
     8     6    76    1
     9     6    77    1
    10     7     9   am
    11     9    10    1
    12    10    11    2
    13    10    43    1
    14    11    14    1
    15    11    15    1
    16    12    13   ar
    17    12    27   ar
    18    12    43    1
    19    13    14    1
    20    13    30   ar
    21    14    17    2
    22    15    16    1
    23    16    17    1
    24    16    18    1
    25    16    22    1
    26    18    19    1
    27    19    20    1
    28    20    21    1
    29    21    22    1
    30    23    24    1
    31    23    88    1
    32    23    89    1
    33    24    25    1
    34    24    26    1
    35    24    90    1
    36    25    91    1
    37    25    92    1
    38    25    93    1
    39    26    94    1
    40    26    95    1
    41    26    96    1
    42    27    28   ar
    43    28    29   ar
    44    29    30   ar
    45    29    31    1
    46    30    33    1
    47    31    32    1
    48    32    33    1
    49    32    35    1
    50    34    97    1
    51    34    98    1
    52    34    99    1
    53    35    61    1
    54    36    37    1
    55    36    60    1
    56    37    38    1
    57    38    39    1
    58    39    40    1
    59    40    41    1
    60    41    42    1
    61    45   100    1
    62    47   101    1
    63    47   102    1
    64    47   103    1
    65    48   104    1
    66    49   105    1
    67    49   106    1
    68    49   107    1
    69    50   108    1
    70    51    59    1
    71    52   109    1
    72    52   110    1
    73    52   111    1
    74    53    54    1
    75    54    55    2
    76    54    56    1
    77    56   112    1
    78    56   113    1
    79    56   114    1
    80    57   115    1
    81    57   116    1
    82    57   117    1
    83    58   118    1
    84    58   119    1
    85    58   120    1
    86    59   121    1
    87    59   122    1
    88    59   123    1
    89    60    61    2
    90     1    47    1
    91     1    62    1
    92     2    63    1
    93     3    64    1
    94     4    65    1
    95     5     6    1
    96     7     8    2
    97     9    78    1
    98    15    79    1
    99    18    80    1
   100    18    81    1
   101    19    82    1
   102    19    83    1
   103    20    23    1
   104    21    84    1
   105    21    85    1
   106    22    86    1
   107    22    87    1
   108    27    45    1
   109    28    34    1
   110    32    58    1
   111    33    46    2
   112    36    51    1
   113    36    66    1
   114    37    52    1
   115    37    67    1
   116    38    53    1
   117    38    68    1
   118    42    48    1
   119    42    72    1
   120    43    44    2
   121    60    73    1
   122    61    74    1
   123    39    69    1
   124    39    57    1
   125    40    70    1
   126    40    50    1
   127    41    71    1
   128    41    49    1
