@<TRIPOS>MOLECULE
*****
 123 128 0 0 0
SMALL
GASTEIGER

@<TRIPOS>ATOM
     1 C         5.1634   1.766546   0.466778 C.3        1 UNL1     0.0009
     2 C         6.592906   2.578524   -0.390101 C.2        1 UNL1     -0.0787
     3 C         7.871729   2.48549   -1.062413 C.2        1 UNL1     -0.0649
     4 C         8.740976   3.724417   -1.821247 C.2        1 UNL1     -0.0542
     5 C         9.75519   4.021547   -2.76473 C.2        1 UNL1     0.0115
     6 C         10.881179   3.400907   -3.636669 C.3        1 UNL1     -0.0348
     7 C         9.842224   5.505704   -3.370282 C.2        1 UNL1     0.2441
     8 O         10.665112   6.329896   -2.995999 O.2        1 UNL1     -0.2702
     9 N         9.085348   5.71113   -4.53694 N.am        1 UNL1     -0.2772
     10 C         7.802887   6.092986   -4.216314 C.2        1 UNL1     0.1049
     11 C         6.962021   5.118319   -3.921032 C.2        1 UNL1     0.0801
     12 C         6.506015   7.693711   -2.797464 C.ar        1 UNL1     0.0753
     13 C         5.753216   6.562702   -2.34722 C.ar        1 UNL1     0.0305
     14 C         5.871472   5.258033   -2.994448 C.2        1 UNL1     0.0924
     15 N         7.088514   3.789933   -4.082021 N.pl3        1 UNL1     -0.3170
     16 C         5.822384   3.18599   -3.761988 C.3        1 UNL1     0.1275
     17 N         5.187602   4.138046   -2.777934 N.2        1 UNL1     -0.2557
     18 C         4.962933   3.243245   -5.021261 C.3        1 UNL1     0.0016
     19 C         5.714484   2.562888   -6.154343 C.3        1 UNL1     0.0026
     20 N         5.991434   1.185383   -5.771186 N.3        1 UNL1     -0.3018
     21 C         6.761629   1.026512   -4.535901 C.3        1 UNL1     0.0026
     22 C         5.986152   1.713221   -3.410306 C.3        1 UNL1     0.0016
     23 C         6.43319   0.368468   -6.883905 C.3        1 UNL1     0.0012
     24 C         5.273664   0.115845   -7.860346 C.3        1 UNL1     -0.0339
     25 C         5.339808   1.063661   -9.0692 C.3        1 UNL1     -0.0615
     26 C         5.263925   -1.340398   -8.291669 C.3        1 UNL1     -0.0615
     27 C         6.29963   8.960165   -2.255599 C.ar        1 UNL1     0.1347
     28 C         5.344512   9.225422   -1.290489 C.ar        1 UNL1     0.0342
     29 C         4.649296   8.08807   -0.827596 C.ar        1 UNL1     0.1435
     30 C         4.870687   6.807302   -1.335376 C.ar        1 UNL1     0.0774
     31 O         3.612256   8.197158   0.031272 O.3        1 UNL1     -0.4436
     32 C         2.894214   6.961935   -0.108409 C.3        1 UNL1     0.3143
     33 C         3.908289   5.972912   -0.646645 C.2        1 UNL1     0.2504
     34 C         4.895106   10.589525   -0.846241 C.3        1 UNL1     -0.0327
     35 O         2.541806   6.522727   1.209224 O.2        1 UNL1     -0.4528
     36 C         -0.696386   4.579486   0.827104 C.3        1 UNL1     0.0854
     37 C         -1.001802   3.318676   -0.069892 C.3        1 UNL1     0.0236
     38 C         -1.593901   2.054782   0.719878 C.3        1 UNL1     0.1131
     39 C         -0.859675   1.525191   2.017073 C.3        1 UNL1     0.0200
     40 C         0.802207   1.385468   2.049667 C.3        1 UNL1     0.0661
     41 C         1.758328   0.621123   0.875265 C.3        1 UNL1     0.0091
     42 C         3.461739   0.990229   0.302944 C.3        1 UNL1     0.0661
     43 C         7.451075   7.490411   -3.923426 C.2        1 UNL1     0.2131
     44 O         7.844136   8.390566   -4.643122 O.2        1 UNL1     -0.2851
     45 O         7.105906   9.99856   -2.717221 O.3        1 UNL1     -0.5056
     46 O         3.929182   4.76932   -0.517097 O.2        1 UNL1     -0.2836
     47 C         5.568577   1.337127   1.90254 C.3        1 UNL1     -0.0566
     48 O         3.91568   -0.419361   0.381108 O.3        1 UNL1     -0.3909
     49 C         0.918673   0.386749   -0.360673 C.3        1 UNL1     -0.0577
     50 O         1.400101   2.605073   2.440576 O.3        1 UNL1     -0.3910
     51 O         -0.812731   4.388078   2.218958 O.3        1 UNL1     -0.3753
     52 C         0.037339   3.162962   -1.227859 C.3        1 UNL1     -0.0564
     53 O         -2.197409   1.014518   -0.177873 O.3        1 UNL1     -0.4608
     54 C         -2.425486   -0.293368   0.161752 C.2        1 UNL1     0.3042
     55 O         -1.854082   -1.289973   -0.278832 O.2        1 UNL1     -0.2512
     56 C         -3.460964   -0.463793   1.236672 C.3        1 UNL1     0.0332
     57 C         -1.576632   2.190464   3.2826 C.3        1 UNL1     -0.0567
     58 C         1.812664   7.204241   -1.186864 C.3        1 UNL1     0.0210
     59 C         -1.126309   5.565283   2.961738 C.3        1 UNL1     0.0372
     60 C         0.629197   5.213465   0.590332 C.2        1 UNL1     -0.0208
     61 C         1.545005   5.651106   1.455498 C.2        1 UNL1     0.0882
     62 H         4.684469   2.748954   0.557395 H        1 UNL1     0.0365
     63 H         6.32349   3.63128   -0.282448 H        1 UNL1     0.0576
     64 H         8.331654   1.520465   -1.286698 H        1 UNL1     0.0615
     65 H         8.252445   4.637769   -1.471092 H        1 UNL1     0.0622
     66 H         -1.445228   5.323672   0.521376 H        1 UNL1     0.0645
     67 H         -1.871533   3.625555   -0.676484 H        1 UNL1     0.0362
     68 H         -2.540701   2.487992   1.076839 H        1 UNL1     0.0741
     69 H         -1.186639   0.51275   2.213204 H        1 UNL1     0.0359
     70 H         0.920789   0.72472   2.929673 H        1 UNL1     0.0600
     71 H         1.807676   -0.400277   1.301017 H        1 UNL1     0.0348
     72 H         3.359128   1.477152   1.283603 H        1 UNL1     0.0602
     73 H         0.741121   5.412086   -0.44662 H        1 UNL1     0.0628
     74 H         1.533646   5.439393   2.525211 H        1 UNL1     0.1022
     75 H         10.911617   2.292214   -3.506636 H        1 UNL1     0.0279
     76 H         10.775127   3.507604   -4.713905 H        1 UNL1     0.0279
     77 H         11.887781   3.686645   -3.297839 H        1 UNL1     0.0279
     78 H         9.023738   4.841453   -5.062243 H        1 UNL1     0.1553
     79 H         7.752135   3.364858   -4.703191 H        1 UNL1     0.1484
     80 H         4.004386   2.748749   -4.8227 H        1 UNL1     0.0317
     81 H         4.731301   4.279443   -5.290133 H        1 UNL1     0.0317
     82 H         6.641997   3.097693   -6.406562 H        1 UNL1     0.0428
     83 H         5.08461   2.61665   -7.042835 H        1 UNL1     0.0428
     84 H         6.88719   -0.016294   -4.228328 H        1 UNL1     0.0428
     85 H         7.789878   1.398267   -4.644613 H        1 UNL1     0.0428
     86 H         6.50807   1.463842   -2.505099 H        1 UNL1     0.0317
     87 H         5.009044   1.232022   -3.280683 H        1 UNL1     0.0317
     88 H         7.224647   0.913551   -7.41473 H        1 UNL1     0.0429
     89 H         6.870891   -0.576097   -6.536072 H        1 UNL1     0.0429
     90 H         4.323028   0.280268   -7.339317 H        1 UNL1     0.0308
     91 H         6.292493   0.96725   -9.598537 H        1 UNL1     0.0233
     92 H         4.521373   0.861224   -9.764033 H        1 UNL1     0.0233
     93 H         5.241819   2.116997   -8.779861 H        1 UNL1     0.0233
     94 H         4.568084   -1.482678   -9.125574 H        1 UNL1     0.0233
     95 H         6.26078   -1.636499   -8.630147 H        1 UNL1     0.0233
     96 H         4.959872   -1.997346   -7.47195 H        1 UNL1     0.0233
     97 H         4.099396   10.53639   -0.109184 H        1 UNL1     0.0280
     98 H         5.705855   11.158499   -0.372733 H        1 UNL1     0.0280
     99 H         4.523807   11.156947   -1.715301 H        1 UNL1     0.0280
     100 H         6.634616   10.748338   -3.035561 H        1 UNL1     0.2922
     101 H         4.706719   0.911388   2.415962 H        1 UNL1     0.0236
     102 H         6.030549   2.140188   2.475828 H        1 UNL1     0.0236
     103 H         6.318485   0.528549   1.896856 H        1 UNL1     0.0236
     104 H         4.334735   -0.546266   1.254754 H        1 UNL1     0.2098
     105 H         0.699946   1.285349   -0.932063 H        1 UNL1     0.0234
     106 H         1.287487   -0.399365   -1.019405 H        1 UNL1     0.0234
     107 H         0.0   -0.0   0.0 H        1 UNL1     0.0234
     108 H         1.210703   3.258652   1.740054 H        1 UNL1     0.2098
     109 H         1.065893   3.06515   -0.853399 H        1 UNL1     0.0234
     110 H         -0.18892   2.328074   -1.899805 H        1 UNL1     0.0234
     111 H         0.04329   4.041189   -1.887123 H        1 UNL1     0.0234
     112 H         -3.579351   -1.525302   1.474432 H        1 UNL1     0.0342
     113 H         -3.22306   0.112414   2.129549 H        1 UNL1     0.0342
     114 H         -4.421233   -0.096283   0.849394 H        1 UNL1     0.0342
     115 H         -2.645167   1.938383   3.325917 H        1 UNL1     0.0234
     116 H         -1.134303   1.911367   4.240983 H        1 UNL1     0.0234
     117 H         -1.619358   3.292222   3.235195 H        1 UNL1     0.0234
     118 H         0.911376   7.686177   -0.769223 H        1 UNL1     0.0309
     119 H         2.175216   7.795593   -2.033659 H        1 UNL1     0.0309
     120 H         1.426318   6.271347   -1.611778 H        1 UNL1     0.0309
     121 H         -0.291254   6.256639   2.851886 H        1 UNL1     0.0524
     122 H         -2.028947   6.071888   2.581431 H        1 UNL1     0.0524
     123 H         -1.274635   5.320156   4.009596 H        1 UNL1     0.0524
@<TRIPOS>BOND
     1     1     2    1
     2     1    42    1
     3     2     3    2
     4     3     4    1
     5     4     5    2
     6     5     7    1
     7     6    75    1
     8     6    76    1
     9     6    77    1
    10     7     9   am
    11     9    10    1
    12    10    11    2
    13    10    43    1
    14    11    14    1
    15    11    15    1
    16    12    13   ar
    17    12    27   ar
    18    12    43    1
    19    13    14    1
    20    13    30   ar
    21    14    17    2
    22    15    16    1
    23    16    17    1
    24    16    18    1
    25    16    22    1
    26    18    19    1
    27    19    20    1
    28    20    21    1
    29    21    22    1
    30    23    24    1
    31    23    88    1
    32    23    89    1
    33    24    25    1
    34    24    26    1
    35    24    90    1
    36    25    91    1
    37    25    92    1
    38    25    93    1
    39    26    94    1
    40    26    95    1
    41    26    96    1
    42    27    28   ar
    43    28    29   ar
    44    29    30   ar
    45    29    31    1
    46    30    33    1
    47    31    32    1
    48    32    33    1
    49    32    35    1
    50    34    97    1
    51    34    98    1
    52    34    99    1
    53    35    61    1
    54    36    37    1
    55    36    60    1
    56    37    38    1
    57    38    39    1
    58    39    40    1
    59    40    41    1
    60    41    42    1
    61    45   100    1
    62    47   101    1
    63    47   102    1
    64    47   103    1
    65    48   104    1
    66    49   105    1
    67    49   106    1
    68    49   107    1
    69    50   108    1
    70    51    59    1
    71    52   109    1
    72    52   110    1
    73    52   111    1
    74    53    54    1
    75    54    55    2
    76    54    56    1
    77    56   112    1
    78    56   113    1
    79    56   114    1
    80    57   115    1
    81    57   116    1
    82    57   117    1
    83    58   118    1
    84    58   119    1
    85    58   120    1
    86    59   121    1
    87    59   122    1
    88    59   123    1
    89    60    61    2
    90     1    47    1
    91     1    62    1
    92     2    63    1
    93     3    64    1
    94     4    65    1
    95     5     6    1
    96     7     8    2
    97     9    78    1
    98    15    79    1
    99    18    80    1
   100    18    81    1
   101    19    82    1
   102    19    83    1
   103    20    23    1
   104    21    84    1
   105    21    85    1
   106    22    86    1
   107    22    87    1
   108    27    45    1
   109    28    34    1
   110    32    58    1
   111    33    46    2
   112    36    51    1
   113    36    66    1
   114    37    52    1
   115    37    67    1
   116    38    53    1
   117    38    68    1
   118    42    48    1
   119    42    72    1
   120    43    44    2
   121    60    73    1
   122    61    74    1
   123    39    69    1
   124    39    57    1
   125    40    70    1
   126    40    50    1
   127    41    71    1
   128    41    49    1
