@<TRIPOS>MOLECULE
*****
 123 128 0 0 0
SMALL
GASTEIGER

@<TRIPOS>ATOM
     1 C         5.166405   1.760271   0.45714 C.3        1 UNL1     0.0009
     2 C         6.595857   2.568993   -0.402903 C.2        1 UNL1     -0.0787
     3 C         7.87365   2.473193   -1.076783 C.2        1 UNL1     -0.0649
     4 C         8.743551   3.709773   -1.838689 C.2        1 UNL1     -0.0542
     5 C         9.756899   4.004077   -2.783987 C.2        1 UNL1     0.0115
     6 C         10.880878   3.380571   -3.656475 C.3        1 UNL1     -0.0348
     7 C         9.845127   5.487181   -3.391941 C.2        1 UNL1     0.2441
     8 O         10.66963   6.310833   -3.02003 O.2        1 UNL1     -0.2702
     9 N         9.086966   5.691835   -4.5579 N.am        1 UNL1     -0.2772
     10 C         7.805453   6.075919   -4.236145 C.2        1 UNL1     0.1049
     11 C         6.963667   5.102848   -3.938236 C.2        1 UNL1     0.0801
     12 C         6.512651   7.680582   -2.818028 C.ar        1 UNL1     0.0753
     13 C         5.758928   6.551287   -2.365033 C.ar        1 UNL1     0.0305
     14 C         5.874552   5.245464   -3.010408 C.2        1 UNL1     0.0924
     15 N         7.088149   3.774045   -4.097346 N.pl3        1 UNL1     -0.3170
     16 C         5.821634   3.17231   -3.774688 C.3        1 UNL1     0.1275
     17 N         5.189459   4.126739   -2.791252 N.2        1 UNL1     -0.2557
     18 C         4.960573   3.228791   -5.032895 C.3        1 UNL1     0.0016
     19 C         5.709683   2.545673   -6.165933 C.3        1 UNL1     0.0026
     20 N         5.985284   1.168387   -5.781024 N.3        1 UNL1     -0.3018
     21 C         6.75692   1.010375   -4.546529 C.3        1 UNL1     0.0026
     22 C         5.983883   1.699864   -3.420956 C.3        1 UNL1     0.0016
     23 C         6.424443   0.349162   -6.893074 C.3        1 UNL1     0.0012
     24 C         5.263267   0.096607   -7.867571 C.3        1 UNL1     -0.0339
     25 C         5.329071   1.04247   -9.077971 C.3        1 UNL1     -0.0615
     26 C         5.250982   -1.360285   -8.296636 C.3        1 UNL1     -0.0615
     27 C         6.308705   8.948146   -2.277839 C.ar        1 UNL1     0.1347
     28 C         5.355241   9.216181   -1.311861 C.ar        1 UNL1     0.0342
     29 C         4.65911   8.080485   -0.846285 C.ar        1 UNL1     0.1435
     30 C         4.878089   6.798639   -1.352386 C.ar        1 UNL1     0.0774
     31 O         3.623372   8.192299   0.013802 O.3        1 UNL1     -0.4436
     32 C         2.903474   6.957835   -0.123014 C.3        1 UNL1     0.3143
     33 C         3.915489   5.966613   -0.661083 C.2        1 UNL1     0.2504
     34 C         4.908275   10.581574   -0.869115 C.3        1 UNL1     -0.0327
     35 O         2.55224   6.521134   1.195766 O.2        1 UNL1     -0.4528
     36 C         -0.689085   4.581692   0.820977 C.3        1 UNL1     0.0854
     37 C         -0.997408   3.319917   -0.073664 C.3        1 UNL1     0.0236
     38 C         -1.590155   2.058043   0.718844 C.3        1 UNL1     0.1131
     39 C         -0.854907   1.529456   2.015869 C.3        1 UNL1     0.0200
     40 C         0.806827   1.387534   2.046453 C.3        1 UNL1     0.0661
     41 C         1.760338   0.620088   0.871951 C.3        1 UNL1     0.0091
     42 C         3.463478   0.986007   0.296781 C.3        1 UNL1     0.0661
     43 C         7.455924   7.47427   -3.94494 C.2        1 UNL1     0.2131
     44 O         7.849235   8.372783   -4.666548 O.2        1 UNL1     -0.2851
     45 O         7.115763   9.984737   -2.74214 O.3        1 UNL1     -0.5056
     46 O         3.934928   4.763194   -0.529708 O.2        1 UNL1     -0.2836
     47 C         5.572926   1.332515   1.893018 C.3        1 UNL1     -0.0566
     48 O         3.915617   -0.424074   0.376509 O.3        1 UNL1     -0.3909
     49 C         0.91871   0.384949   -0.362499 C.3        1 UNL1     -0.0577
     50 O         1.406894   2.606929   2.434681 O.3        1 UNL1     -0.3910
     51 O         -0.803821   4.392585   2.21328 O.3        1 UNL1     -0.3753
     52 C         0.039967   3.161015   -1.232781 C.3        1 UNL1     -0.0564
     53 O         -2.196272   1.017217   -0.176493 O.3        1 UNL1     -0.4608
     54 C         -2.425661   -0.289835   0.165452 C.2        1 UNL1     0.3042
     55 O         -1.856196   -1.287889   -0.274361 O.2        1 UNL1     -0.2512
     56 C         -3.459926   -0.457204   1.242019 C.3        1 UNL1     0.0332
     57 C         -1.569266   2.197647   3.281329 C.3        1 UNL1     -0.0567
     58 C         1.820806   7.199945   -1.200392 C.3        1 UNL1     0.0210
     59 C         -1.114812   5.571355   2.954663 C.3        1 UNL1     0.0372
     60 C         0.637035   5.213511   0.581454 C.2        1 UNL1     -0.0208
     61 C         1.554593   5.651243   1.444717 C.2        1 UNL1     0.0882
     62 H         4.688924   2.743465   0.546884 H        1 UNL1     0.0365
     63 H         6.328008   3.622277   -0.296512 H        1 UNL1     0.0576
     64 H         8.331968   1.507203   -1.300196 H        1 UNL1     0.0615
     65 H         8.256725   4.624323   -1.489288 H        1 UNL1     0.0622
     66 H         -1.43733   5.326419   0.515107 H        1 UNL1     0.0645
     67 H         -1.867536   3.627039   -0.679563 H        1 UNL1     0.0362
     68 H         -2.535889   2.493083   1.076405 H        1 UNL1     0.0741
     69 H         -1.182975   0.517762   2.213998 H        1 UNL1     0.0359
     70 H         0.925696   0.727982   2.927317 H        1 UNL1     0.0600
     71 H         1.808877   -0.400721   1.29921 H        1 UNL1     0.0348
     72 H         3.36284   1.474577   1.276825 H        1 UNL1     0.0602
     73 H         0.747836   5.410384   -0.455952 H        1 UNL1     0.0628
     74 H         1.544383   5.441192   2.51477 H        1 UNL1     0.1022
     75 H         10.909992   2.27204   -3.524775 H        1 UNL1     0.0279
     76 H         10.773526   3.485754   -4.733731 H        1 UNL1     0.0279
     77 H         11.88832   3.665468   -3.319435 H        1 UNL1     0.0279
     78 H         9.023476   4.821434   -5.081779 H        1 UNL1     0.1553
     79 H         7.75036   3.347117   -4.718749 H        1 UNL1     0.1484
     80 H         4.001625   2.735898   -4.832288 H        1 UNL1     0.0317
     81 H         4.729982   4.264886   -5.303053 H        1 UNL1     0.0317
     82 H         6.637579   3.078834   -6.420217 H        1 UNL1     0.0428
     83 H         5.078691   2.59892   -7.053662 H        1 UNL1     0.0428
     84 H         6.881484   -0.032126   -4.237517 H        1 UNL1     0.0428
     85 H         7.785524   1.38057   -4.657191 H        1 UNL1     0.0428
     86 H         6.506677   1.451173   -2.516066 H        1 UNL1     0.0317
     87 H         5.0063   1.220188   -3.289283 H        1 UNL1     0.0317
     88 H         7.215923   0.892356   -7.425798 H        1 UNL1     0.0429
     89 H         6.861333   -0.595458   -6.544372 H        1 UNL1     0.0429
     90 H         4.313555   0.263118   -7.345523 H        1 UNL1     0.0308
     91 H         6.280914   0.943954   -9.608435 H        1 UNL1     0.0233
     92 H         4.509432   0.840072   -9.771395 H        1 UNL1     0.0233
     93 H         5.232895   2.096381   -8.790125 H        1 UNL1     0.0233
     94 H         4.56791   -1.499442   -9.141552 H        1 UNL1     0.0233
     95 H         6.251254   -1.663495   -8.618323 H        1 UNL1     0.0233
     96 H         4.929288   -2.01381   -7.480924 H        1 UNL1     0.0233
     97 H         4.113484   10.53065   -0.130911 H        1 UNL1     0.0280
     98 H         5.720428   11.150178   -0.39757 H        1 UNL1     0.0280
     99 H         4.536579   11.148159   -1.73855 H        1 UNL1     0.0280
     100 H         6.645269   10.738818   -3.051363 H        1 UNL1     0.2922
     101 H         4.711182   0.908733   2.408249 H        1 UNL1     0.0236
     102 H         6.036752   2.13583   2.464449 H        1 UNL1     0.0236
     103 H         6.321732   0.522914   1.887576 H        1 UNL1     0.0236
     104 H         4.335672   -0.550202   1.249788 H        1 UNL1     0.2098
     105 H         0.700432   1.282964   -0.934979 H        1 UNL1     0.0234
     106 H         1.285577   -0.402676   -1.020512 H        1 UNL1     0.0234
     107 H         0.0   -0.0   0.0 H        1 UNL1     0.0234
     108 H         1.21744   3.259684   1.733407 H        1 UNL1     0.2098
     109 H         1.06889   3.062387   -0.859549 H        1 UNL1     0.0234
     110 H         -0.188321   2.325401   -1.903136 H        1 UNL1     0.0234
     111 H         0.046221   4.038217   -1.893405 H        1 UNL1     0.0234
     112 H         -3.579429   -1.518184   1.481573 H        1 UNL1     0.0342
     113 H         -3.220046   0.120055   2.133688 H        1 UNL1     0.0342
     114 H         -4.420216   -0.08899   0.855462 H        1 UNL1     0.0342
     115 H         -2.640678   1.957241   3.319634 H        1 UNL1     0.0234
     116 H         -1.13369   1.909907   4.240249 H        1 UNL1     0.0234
     117 H         -1.59963   3.299987   3.23814 H        1 UNL1     0.0234
     118 H         0.9195   7.680919   -0.781684 H        1 UNL1     0.0309
     119 H         2.182165   7.792095   -2.047139 H        1 UNL1     0.0309
     120 H         1.434828   6.267005   -1.62554 H        1 UNL1     0.0309
     121 H         -0.278971   6.26141   2.842628 H        1 UNL1     0.0524
     122 H         -2.017274   6.078596   2.574785 H        1 UNL1     0.0524
     123 H         -1.262064   5.328043   4.003095 H        1 UNL1     0.0524
@<TRIPOS>BOND
     1     1     2    1
     2     1    42    1
     3     2     3    2
     4     3     4    1
     5     4     5    2
     6     5     7    1
     7     6    75    1
     8     6    76    1
     9     6    77    1
    10     7     9   am
    11     9    10    1
    12    10    11    2
    13    10    43    1
    14    11    14    1
    15    11    15    1
    16    12    13   ar
    17    12    27   ar
    18    12    43    1
    19    13    14    1
    20    13    30   ar
    21    14    17    2
    22    15    16    1
    23    16    17    1
    24    16    18    1
    25    16    22    1
    26    18    19    1
    27    19    20    1
    28    20    21    1
    29    21    22    1
    30    23    24    1
    31    23    88    1
    32    23    89    1
    33    24    25    1
    34    24    26    1
    35    24    90    1
    36    25    91    1
    37    25    92    1
    38    25    93    1
    39    26    94    1
    40    26    95    1
    41    26    96    1
    42    27    28   ar
    43    28    29   ar
    44    29    30   ar
    45    29    31    1
    46    30    33    1
    47    31    32    1
    48    32    33    1
    49    32    35    1
    50    34    97    1
    51    34    98    1
    52    34    99    1
    53    35    61    1
    54    36    37    1
    55    36    60    1
    56    37    38    1
    57    38    39    1
    58    39    40    1
    59    40    41    1
    60    41    42    1
    61    45   100    1
    62    47   101    1
    63    47   102    1
    64    47   103    1
    65    48   104    1
    66    49   105    1
    67    49   106    1
    68    49   107    1
    69    50   108    1
    70    51    59    1
    71    52   109    1
    72    52   110    1
    73    52   111    1
    74    53    54    1
    75    54    55    2
    76    54    56    1
    77    56   112    1
    78    56   113    1
    79    56   114    1
    80    57   115    1
    81    57   116    1
    82    57   117    1
    83    58   118    1
    84    58   119    1
    85    58   120    1
    86    59   121    1
    87    59   122    1
    88    59   123    1
    89    60    61    2
    90     1    47    1
    91     1    62    1
    92     2    63    1
    93     3    64    1
    94     4    65    1
    95     5     6    1
    96     7     8    2
    97     9    78    1
    98    15    79    1
    99    18    80    1
   100    18    81    1
   101    19    82    1
   102    19    83    1
   103    20    23    1
   104    21    84    1
   105    21    85    1
   106    22    86    1
   107    22    87    1
   108    27    45    1
   109    28    34    1
   110    32    58    1
   111    33    46    2
   112    36    51    1
   113    36    66    1
   114    37    52    1
   115    37    67    1
   116    38    53    1
   117    38    68    1
   118    42    48    1
   119    42    72    1
   120    43    44    2
   121    60    73    1
   122    61    74    1
   123    39    69    1
   124    39    57    1
   125    40    70    1
   126    40    50    1
   127    41    71    1
   128    41    49    1
