@<TRIPOS>MOLECULE
*****
 123 128 0 0 0
SMALL
GASTEIGER

@<TRIPOS>ATOM
     1 C         2.061531   0.838454   -4.857131 C.3        1 UNL1     0.0009
     2 C         3.233585   0.211637   -6.149582 C.2        1 UNL1     -0.0787
     3 C         4.559528   0.171723   -6.729518 C.2        1 UNL1     -0.0649
     4 C         5.109869   -0.799868   -8.002111 C.2        1 UNL1     -0.0542
     5 C         6.253298   -1.349604   -8.632538 C.2        1 UNL1     0.0115
     6 C         7.80541   -1.304926   -8.680243 C.3        1 UNL1     -0.0348
     7 C         6.068591   -2.597944   -9.624767 C.2        1 UNL1     0.2441
     8 O         6.085115   -2.48778   -10.843011 O.2        1 UNL1     -0.2702
     9 N         6.148032   -3.858158   -9.006946 N.am        1 UNL1     -0.2772
     10 C         4.910119   -4.247607   -8.549536 C.2        1 UNL1     0.1049
     11 C         4.546254   -3.767193   -7.374365 C.2        1 UNL1     0.0801
     12 C         2.517051   -4.465509   -9.244574 C.ar        1 UNL1     0.0753
     13 C         2.186428   -3.751223   -8.049128 C.ar        1 UNL1     0.0305
     14 C         3.182045   -3.49491   -7.010811 C.2        1 UNL1     0.0924
     15 N         5.269671   -3.12174   -6.443459 N.pl3        1 UNL1     -0.3170
     16 C         4.444306   -2.966701   -5.275131 C.3        1 UNL1     0.1275
     17 N         3.033175   -2.943221   -5.80981 N.2        1 UNL1     -0.2557
     18 C         4.567342   -4.251078   -4.460919 C.3        1 UNL1     0.0016
     19 C         6.03745   -4.498852   -4.162627 C.3        1 UNL1     0.0026
     20 N         6.563779   -3.358569   -3.425225 N.3        1 UNL1     -0.3018
     21 C         6.434095   -2.066699   -4.102442 C.3        1 UNL1     0.0026
     22 C         4.949172   -1.836112   -4.388325 C.3        1 UNL1     0.0016
     23 C         7.861648   -3.619044   -2.835029 C.3        1 UNL1     0.0012
     24 C         8.696275   -4.52946   -3.749521 C.3        1 UNL1     -0.0339
     25 C         9.934055   -3.797427   -4.293657 C.3        1 UNL1     -0.0615
     26 C         9.078256   -5.800365   -3.010825 C.3        1 UNL1     -0.0615
     27 C         1.53792   -4.811146   -10.17299 C.ar        1 UNL1     0.1347
     28 C         0.194185   -4.532923   -9.996872 C.ar        1 UNL1     0.0342
     29 C         -0.101242   -3.786293   -8.836514 C.ar        1 UNL1     0.1435
     30 C         0.873998   -3.401653   -7.915548 C.ar        1 UNL1     0.0774
     31 O         -1.375689   -3.531451   -8.467939 O.3        1 UNL1     -0.4436
     32 C         -1.290832   -3.201613   -7.073349 C.3        1 UNL1     0.3143
     33 C         0.135771   -2.736288   -6.862421 C.2        1 UNL1     0.2504
     34 C         -0.936139   -5.087828   -10.818181 C.3        1 UNL1     -0.0327
     35 O         -2.13694   -2.066589   -6.851822 O.2        1 UNL1     -0.4528
     36 C         -3.375681   -2.373953   -3.27703 C.3        1 UNL1     0.0854
     37 C         -2.545193   -2.47442   -1.939975 C.3        1 UNL1     0.0236
     38 C         -2.910691   -1.373196   -0.83297 C.3        1 UNL1     0.1131
     39 C         -2.951302   0.15714   -1.231332 C.3        1 UNL1     0.0200
     40 C         -1.756545   0.811577   -2.193987 C.3        1 UNL1     0.0661
     41 C         -0.0854   0.6461   -1.95419 C.3        1 UNL1     0.0091
     42 C         1.289156   0.571324   -3.166794 C.3        1 UNL1     0.0661
     43 C         3.923724   -4.904516   -9.420082 C.2        1 UNL1     0.2131
     44 O         4.257078   -5.819082   -10.151643 O.2        1 UNL1     -0.2851
     45 O         1.950166   -5.46569   -11.331896 O.3        1 UNL1     -0.5056
     46 O         0.563079   -1.971144   -6.027068 O.2        1 UNL1     -0.2836
     47 C         1.669109   2.310902   -5.15358 C.3        1 UNL1     -0.0566
     48 O         2.132159   1.553829   -2.443506 O.3        1 UNL1     -0.3909
     49 C         0.156196   -0.454166   -0.944963 C.3        1 UNL1     -0.0577
     50 O         -2.067299   0.643248   -3.562497 O.3        1 UNL1     -0.3910
     51 O         -4.202063   -1.239003   -3.405147 O.3        1 UNL1     -0.3753
     52 C         -1.073427   -2.932747   -2.202257 C.3        1 UNL1     -0.0564
     53 O         -2.377001   -1.694125   0.532499 O.3        1 UNL1     -0.4608
     54 C         -1.08273   -2.041675   0.818858 C.2        1 UNL1     0.3042
     55 O         -0.539529   -2.054117   1.922767 O.2        1 UNL1     -0.2512
     56 C         -0.30453   -2.503062   -0.380409 C.3        1 UNL1     0.0332
     57 C         -4.469522   0.526393   -1.573146 C.3        1 UNL1     -0.0567
     58 C         -1.504635   -4.522298   -6.297715 C.3        1 UNL1     0.0210
     59 C         -5.438312   -1.470669   -4.078856 C.3        1 UNL1     0.0372
     60 C         -2.570374   -2.461706   -4.525606 C.2        1 UNL1     -0.0208
     61 C         -2.622301   -1.73209   -5.640822 C.2        1 UNL1     0.0882
     62 H         1.274995   0.211042   -5.293511 H        1 UNL1     0.0365
     63 H         2.554262   -0.371482   -6.774851 H        1 UNL1     0.0576
     64 H         5.404818   0.680644   -6.26091 H        1 UNL1     0.0615
     65 H         4.191226   -1.193362   -8.445665 H        1 UNL1     0.0622
     66 H         -4.018892   -3.265175   -3.270069 H        1 UNL1     0.0645
     67 H         -2.916831   -3.397591   -1.462271 H        1 UNL1     0.0362
     68 H         -3.957242   -1.651165   -0.635519 H        1 UNL1     0.0741
     69 H         -2.88332   0.753066   -0.330967 H        1 UNL1     0.0359
     70 H         -1.925781   1.888467   -2.002342 H        1 UNL1     0.0600
     71 H         0.112459   1.548478   -1.343024 H        1 UNL1     0.0348
     72 H         0.439724   1.023819   -3.698799 H        1 UNL1     0.0602
     73 H         -1.959905   -3.32952   -4.487192 H        1 UNL1     0.0628
     74 H         -3.176796   -0.798492   -5.741664 H        1 UNL1     0.1022
     75 H         8.2406   -1.888777   -7.833625 H        1 UNL1     0.0279
     76 H         8.277487   -1.761924   -9.547056 H        1 UNL1     0.0279
     77 H         8.20828   -0.301082   -8.481012 H        1 UNL1     0.0279
     78 H         6.769424   -3.806117   -8.202433 H        1 UNL1     0.1553
     79 H         6.27199   -3.145348   -6.401831 H        1 UNL1     0.1484
     80 H         3.983499   -4.146886   -3.538402 H        1 UNL1     0.0317
     81 H         4.143752   -5.101724   -5.005552 H        1 UNL1     0.0317
     82 H         6.615028   -4.676638   -5.081707 H        1 UNL1     0.0428
     83 H         6.102474   -5.420183   -3.582997 H        1 UNL1     0.0428
     84 H         6.763622   -1.218007   -3.495034 H        1 UNL1     0.0428
     85 H         7.063241   -2.011525   -5.00158 H        1 UNL1     0.0428
     86 H         4.878626   -0.830806   -4.760308 H        1 UNL1     0.0317
     87 H         4.38777   -1.798315   -3.446786 H        1 UNL1     0.0317
     88 H         8.385112   -2.660383   -2.724351 H        1 UNL1     0.0429
     89 H         7.76358   -4.049808   -1.83024 H        1 UNL1     0.0429
     90 H         8.07924   -4.84978   -4.597386 H        1 UNL1     0.0308
     91 H         9.982748   -2.769059   -3.923265 H        1 UNL1     0.0233
     92 H         10.849038   -4.323785   -4.011942 H        1 UNL1     0.0233
     93 H         9.938292   -3.741587   -5.388965 H        1 UNL1     0.0233
     94 H         9.888047   -6.31531   -3.538942 H        1 UNL1     0.0233
     95 H         9.43316   -5.555996   -2.005694 H        1 UNL1     0.0233
     96 H         8.2292   -6.484711   -2.92871 H        1 UNL1     0.0233
     97 H         -1.103179   -6.142638   -10.621449 H        1 UNL1     0.0280
     98 H         -1.889095   -4.587273   -10.602367 H        1 UNL1     0.0280
     99 H         -0.707065   -4.968214   -11.889775 H        1 UNL1     0.0280
     100 H         1.73546   -5.018464   -12.131591 H        1 UNL1     0.2922
     101 H         2.435809   2.778577   -5.770919 H        1 UNL1     0.0236
     102 H         1.460179   2.888332   -4.253632 H        1 UNL1     0.0236
     103 H         0.746042   2.380846   -5.752952 H        1 UNL1     0.0236
     104 H         2.459802   2.200393   -3.098925 H        1 UNL1     0.2098
     105 H         -0.526641   -1.296137   -1.026384 H        1 UNL1     0.0234
     106 H         1.18623   -0.80674   -0.893494 H        1 UNL1     0.0234
     107 H         0.0   0.0   0.0 H        1 UNL1     0.0234
     108 H         -1.430739   1.180141   -4.072698 H        1 UNL1     0.2098
     109 H         -0.688555   -3.57592   -1.398569 H        1 UNL1     0.0234
     110 H         -0.944534   -3.435089   -3.167028 H        1 UNL1     0.0234
     111 H         -0.386283   -2.07767   -2.253456 H        1 UNL1     0.0234
     112 H         0.73185   -2.159928   -0.306092 H        1 UNL1     0.0342
     113 H         -0.350178   -3.583643   -0.507307 H        1 UNL1     0.0342
     114 H         -0.748018   -2.043864   -1.274624 H        1 UNL1     0.0342
     115 H         -4.56574   1.555932   -1.944603 H        1 UNL1     0.0234
     116 H         -4.931663   -0.133192   -2.310318 H        1 UNL1     0.0234
     117 H         -5.125076   0.55783   -0.685902 H        1 UNL1     0.0234
     118 H         -2.287605   -5.150777   -6.757039 H        1 UNL1     0.0309
     119 H         -0.588332   -5.111759   -6.192231 H        1 UNL1     0.0309
     120 H         -1.877599   -4.357024   -5.28101 H        1 UNL1     0.0309
     121 H         -5.34532   -1.066796   -5.086623 H        1 UNL1     0.0524
     122 H         -5.669239   -2.544951   -4.171751 H        1 UNL1     0.0524
     123 H         -6.251378   -0.97955   -3.55177 H        1 UNL1     0.0524
@<TRIPOS>BOND
     1     1     2    1
     2     1    42    1
     3     2     3    2
     4     3     4    1
     5     4     5    2
     6     5     7    1
     7     6    75    1
     8     6    76    1
     9     6    77    1
    10     7     9   am
    11     9    10    1
    12    10    11    2
    13    10    43    1
    14    11    14    1
    15    11    15    1
    16    12    13   ar
    17    12    27   ar
    18    12    43    1
    19    13    14    1
    20    13    30   ar
    21    14    17    2
    22    15    16    1
    23    16    17    1
    24    16    18    1
    25    16    22    1
    26    18    19    1
    27    19    20    1
    28    20    21    1
    29    21    22    1
    30    23    24    1
    31    23    88    1
    32    23    89    1
    33    24    25    1
    34    24    26    1
    35    24    90    1
    36    25    91    1
    37    25    92    1
    38    25    93    1
    39    26    94    1
    40    26    95    1
    41    26    96    1
    42    27    28   ar
    43    28    29   ar
    44    29    30   ar
    45    29    31    1
    46    30    33    1
    47    31    32    1
    48    32    33    1
    49    32    35    1
    50    34    97    1
    51    34    98    1
    52    34    99    1
    53    35    61    1
    54    36    37    1
    55    36    60    1
    56    37    38    1
    57    38    39    1
    58    39    40    1
    59    40    41    1
    60    41    42    1
    61    45   100    1
    62    47   101    1
    63    47   102    1
    64    47   103    1
    65    48   104    1
    66    49   105    1
    67    49   106    1
    68    49   107    1
    69    50   108    1
    70    51    59    1
    71    52   109    1
    72    52   110    1
    73    52   111    1
    74    53    54    1
    75    54    55    2
    76    54    56    1
    77    56   112    1
    78    56   113    1
    79    56   114    1
    80    57   115    1
    81    57   116    1
    82    57   117    1
    83    58   118    1
    84    58   119    1
    85    58   120    1
    86    59   121    1
    87    59   122    1
    88    59   123    1
    89    60    61    2
    90     1    47    1
    91     1    62    1
    92     2    63    1
    93     3    64    1
    94     4    65    1
    95     5     6    1
    96     7     8    2
    97     9    78    1
    98    15    79    1
    99    18    80    1
   100    18    81    1
   101    19    82    1
   102    19    83    1
   103    20    23    1
   104    21    84    1
   105    21    85    1
   106    22    86    1
   107    22    87    1
   108    27    45    1
   109    28    34    1
   110    32    58    1
   111    33    46    2
   112    36    51    1
   113    36    66    1
   114    37    52    1
   115    37    67    1
   116    38    53    1
   117    38    68    1
   118    42    48    1
   119    42    72    1
   120    43    44    2
   121    60    73    1
   122    61    74    1
   123    39    69    1
   124    39    57    1
   125    40    70    1
   126    40    50    1
   127    41    71    1
   128    41    49    1
