@<TRIPOS>MOLECULE
*****
 123 128 0 0 0
SMALL
GASTEIGER

@<TRIPOS>ATOM
     1 C         4.298128   0.322094   1.072108 C.3        1 UNL1     0.0009
     2 C         5.863641   -0.294432   0.293582 C.2        1 UNL1     -0.0787
     3 C         6.824408   -1.355061   0.074402 C.2        1 UNL1     -0.0649
     4 C         8.163861   -1.34815   -0.961056 C.2        1 UNL1     -0.0542
     5 C         9.094937   -2.155076   -1.660374 C.2        1 UNL1     0.0115
     6 C         9.623941   -3.606139   -1.827394 C.3        1 UNL1     -0.0348
     7 C         9.928542   -1.508519   -2.870356 C.2        1 UNL1     0.2441
     8 O         11.095167   -1.156854   -2.761531 O.2        1 UNL1     -0.2702
     9 N         9.314604   -1.613139   -4.130628 N.am        1 UNL1     -0.2772
     10 C         8.479861   -0.541218   -4.348604 C.2        1 UNL1     0.1049
     11 C         7.27061   -0.62929   -3.824985 C.2        1 UNL1     0.0801
     12 C         8.388031   1.956092   -4.237499 C.ar        1 UNL1     0.0753
     13 C         7.179468   1.800037   -3.486746 C.ar        1 UNL1     0.0305
     14 C         6.513023   0.504937   -3.370047 C.2        1 UNL1     0.0924
     15 N         6.63768   -1.685187   -3.285535 N.pl3        1 UNL1     -0.3170
     16 C         5.278264   -1.294704   -3.021405 C.3        1 UNL1     0.1275
     17 N         5.34892   0.19726   -2.805134 N.2        1 UNL1     -0.2557
     18 C         4.490354   -1.498704   -4.311864 C.3        1 UNL1     0.0016
     19 C         4.653273   -2.943008   -4.757993 C.3        1 UNL1     0.0026
     20 N         4.163288   -3.817127   -3.701178 N.3        1 UNL1     -0.3018
     21 C         4.819339   -3.650748   -2.402608 C.3        1 UNL1     0.0026
     22 C         4.639328   -2.194162   -1.971507 C.3        1 UNL1     0.0016
     23 C         3.994992   -5.189157   -4.136899 C.3        1 UNL1     0.0012
     24 C         3.753087   -5.246841   -5.653445 C.3        1 UNL1     -0.0339
     25 C         4.959489   -5.848423   -6.39287 C.3        1 UNL1     -0.0615
     26 C         2.476678   -6.015342   -5.948349 C.3        1 UNL1     -0.0615
     27 C         8.951546   3.21286   -4.445109 C.ar        1 UNL1     0.1347
     28 C         8.378566   4.385752   -3.986777 C.ar        1 UNL1     0.0342
     29 C         7.215585   4.203376   -3.208717 C.ar        1 UNL1     0.1435
     30 C         6.659542   2.947537   -2.961926 C.ar        1 UNL1     0.0774
     31 O         6.480379   5.253846   -2.783288 O.3        1 UNL1     -0.4436
     32 C         5.195859   4.694458   -2.470295 C.3        1 UNL1     0.3143
     33 C         5.457584   3.22587   -2.203906 C.2        1 UNL1     0.2504
     34 C         8.784813   5.778385   -4.381286 C.3        1 UNL1     -0.0327
     35 O         4.769503   5.273743   -1.23098 O.2        1 UNL1     -0.4528
     36 C         0.977313   5.359528   -1.372477 C.3        1 UNL1     0.0854
     37 C         -0.03879   4.17254   -1.587224 C.3        1 UNL1     0.0236
     38 C         -1.158265   4.026761   -0.448247 C.3        1 UNL1     0.1131
     39 C         -0.729576   3.991057   1.073995 C.3        1 UNL1     0.0200
     40 C         0.582502   3.083562   1.561171 C.3        1 UNL1     0.0661
     41 C         0.866774   1.457761   1.169288 C.3        1 UNL1     0.0091
     42 C         2.44204   0.554054   0.909957 C.3        1 UNL1     0.0661
     43 C         8.973353   0.744669   -4.863689 C.2        1 UNL1     0.2131
     44 O         9.733971   0.778882   -5.813966 O.2        1 UNL1     -0.2851
     45 O         10.153205   3.272927   -5.147851 O.3        1 UNL1     -0.5056
     46 O         4.828397   2.462932   -1.505406 O.2        1 UNL1     -0.2836
     47 C         4.518426   0.592967   2.584747 C.3        1 UNL1     -0.0566
     48 O         2.057279   -0.593085   1.767364 O.3        1 UNL1     -0.3909
     49 C         -0.061958   1.05725   0.044769 C.3        1 UNL1     -0.0577
     50 O         1.77877   3.826337   1.438901 O.3        1 UNL1     -0.3910
     51 O         0.889133   6.029761   -0.135366 O.3        1 UNL1     -0.3753
     52 C         0.648355   2.929563   -2.24128 C.3        1 UNL1     -0.0564
     53 O         -2.302566   3.138717   -0.84103 O.3        1 UNL1     -0.4608
     54 C         -2.20358   2.005287   -1.604881 C.2        1 UNL1     0.3042
     55 O         -2.639661   1.83057   -2.742046 O.2        1 UNL1     -0.2512
     56 C         -1.416536   0.905801   -0.950353 C.3        1 UNL1     0.0332
     57 C         -0.8611   5.478483   1.647093 C.3        1 UNL1     -0.0567
     58 C         4.338519   4.824146   -3.750794 C.3        1 UNL1     0.0210
     59 C         0.780441   7.449357   -0.22917 C.3        1 UNL1     0.0372
     60 C         2.409481   5.004311   -1.56709 C.2        1 UNL1     -0.0208
     61 C         3.482502   5.307695   -0.835428 C.2        1 UNL1     0.0882
     62 H         4.442555   1.280163   0.55834 H        1 UNL1     0.0365
     63 H         6.222563   0.616176   -0.190605 H        1 UNL1     0.0576
     64 H         6.662738   -2.363114   0.462731 H        1 UNL1     0.0615
     65 H         8.283713   -0.293918   -1.225085 H        1 UNL1     0.0622
     66 H         0.73434   6.078166   -2.167819 H        1 UNL1     0.0645
     67 H         -0.64583   4.492414   -2.451945 H        1 UNL1     0.0362
     68 H         -1.682128   4.98559   -0.581427 H        1 UNL1     0.0741
     69 H         -1.539023   3.567775   1.653681 H        1 UNL1     0.0359
     70 H         0.392271   3.042961   2.650769 H        1 UNL1     0.0600
     71 H         0.38491   0.963078   2.035345 H        1 UNL1     0.0348
     72 H         2.702194   1.461051   1.474752 H        1 UNL1     0.0602
     73 H         2.526813   4.53062   -2.51001 H        1 UNL1     0.0628
     74 H         3.444543   5.739738   0.16514 H        1 UNL1     0.1022
     75 H         10.740402   -3.620898   -1.809217 H        1 UNL1     0.0279
     76 H         9.367487   -4.309799   -1.038621 H        1 UNL1     0.0279
     77 H         9.417838   -4.021777   -2.824624 H        1 UNL1     0.0279
     78 H         8.745616   -2.456436   -4.164968 H        1 UNL1     0.1553
     79 H         6.908349   -2.638124   -3.445479 H        1 UNL1     0.1484
     80 H         3.437273   -1.251861   -4.130604 H        1 UNL1     0.0317
     81 H         4.841081   -0.819209   -5.096038 H        1 UNL1     0.0317
     82 H         5.698117   -3.17548   -5.011313 H        1 UNL1     0.0428
     83 H         4.085075   -3.066098   -5.680517 H        1 UNL1     0.0428
     84 H         4.379712   -4.261156   -1.60766 H        1 UNL1     0.0428
     85 H         5.870839   -3.968222   -2.432191 H        1 UNL1     0.0428
     86 H         5.012066   -2.141807   -0.965369 H        1 UNL1     0.0317
     87 H         3.572417   -1.965769   -1.85911 H        1 UNL1     0.0317
     88 H         4.919638   -5.735591   -3.909448 H        1 UNL1     0.0429
     89 H         3.184682   -5.685473   -3.587497 H        1 UNL1     0.0429
     90 H         3.584483   -4.230669   -6.029185 H        1 UNL1     0.0308
     91 H         5.216119   -5.260714   -7.279347 H        1 UNL1     0.0233
     92 H         5.829194   -5.901728   -5.733794 H        1 UNL1     0.0233
     93 H         4.771291   -6.873521   -6.734325 H        1 UNL1     0.0233
     94 H         2.637131   -7.087759   -5.793393 H        1 UNL1     0.0233
     95 H         1.681076   -5.692203   -5.271177 H        1 UNL1     0.0233
     96 H         2.146996   -5.860703   -6.979544 H        1 UNL1     0.0233
     97 H         7.948343   6.470296   -4.352859 H        1 UNL1     0.0280
     98 H         9.54289   6.195415   -3.705518 H        1 UNL1     0.0280
     99 H         9.190133   5.768161   -5.406325 H        1 UNL1     0.0280
     100 H         10.359067   2.496695   -5.638471 H        1 UNL1     0.2922
     101 H         5.171078   1.456333   2.712422 H        1 UNL1     0.0236
     102 H         4.882307   -0.278652   3.127753 H        1 UNL1     0.0236
     103 H         3.582048   0.871925   3.096187 H        1 UNL1     0.0236
     104 H         2.829016   -1.189751   1.825533 H        1 UNL1     0.2098
     105 H         -1.103634   1.322941   0.206417 H        1 UNL1     0.0234
     106 H         0.259656   1.375711   -0.946731 H        1 UNL1     0.0234
     107 H         0.0   0.0   -0.0 H        1 UNL1     0.0234
     108 H         2.211996   3.82471   2.314162 H        1 UNL1     0.2098
     109 H         1.744673   2.984729   -2.188796 H        1 UNL1     0.0234
     110 H         0.308705   1.977909   -1.818509 H        1 UNL1     0.0234
     111 H         0.405624   2.848173   -3.309177 H        1 UNL1     0.0234
     112 H         -0.900399   1.292912   -0.066558 H        1 UNL1     0.0342
     113 H         -2.04118   0.051147   -0.694951 H        1 UNL1     0.0342
     114 H         -0.65364   0.55988   -1.661334 H        1 UNL1     0.0342
     115 H         -1.354427   6.149962   0.9309 H        1 UNL1     0.0234
     116 H         -1.408366   5.54434   2.589543 H        1 UNL1     0.0234
     117 H         0.1098   5.985821   1.780893 H        1 UNL1     0.0234
     118 H         4.897949   4.52949   -4.655903 H        1 UNL1     0.0309
     119 H         3.406573   4.251909   -3.703639 H        1 UNL1     0.0309
     120 H         4.048268   5.859719   -3.959238 H        1 UNL1     0.0309
     121 H         1.633207   7.807975   -0.804964 H        1 UNL1     0.0524
     122 H         -0.133953   7.764858   -0.758679 H        1 UNL1     0.0524
     123 H         0.78448   7.892955   0.762444 H        1 UNL1     0.0524
@<TRIPOS>BOND
     1     1     2    1
     2     1    42    1
     3     2     3    2
     4     3     4    1
     5     4     5    2
     6     5     7    1
     7     6    75    1
     8     6    76    1
     9     6    77    1
    10     7     9   am
    11     9    10    1
    12    10    11    2
    13    10    43    1
    14    11    14    1
    15    11    15    1
    16    12    13   ar
    17    12    27   ar
    18    12    43    1
    19    13    14    1
    20    13    30   ar
    21    14    17    2
    22    15    16    1
    23    16    17    1
    24    16    18    1
    25    16    22    1
    26    18    19    1
    27    19    20    1
    28    20    21    1
    29    21    22    1
    30    23    24    1
    31    23    88    1
    32    23    89    1
    33    24    25    1
    34    24    26    1
    35    24    90    1
    36    25    91    1
    37    25    92    1
    38    25    93    1
    39    26    94    1
    40    26    95    1
    41    26    96    1
    42    27    28   ar
    43    28    29   ar
    44    29    30   ar
    45    29    31    1
    46    30    33    1
    47    31    32    1
    48    32    33    1
    49    32    35    1
    50    34    97    1
    51    34    98    1
    52    34    99    1
    53    35    61    1
    54    36    37    1
    55    36    60    1
    56    37    38    1
    57    38    39    1
    58    39    40    1
    59    40    41    1
    60    41    42    1
    61    45   100    1
    62    47   101    1
    63    47   102    1
    64    47   103    1
    65    48   104    1
    66    49   105    1
    67    49   106    1
    68    49   107    1
    69    50   108    1
    70    51    59    1
    71    52   109    1
    72    52   110    1
    73    52   111    1
    74    53    54    1
    75    54    55    2
    76    54    56    1
    77    56   112    1
    78    56   113    1
    79    56   114    1
    80    57   115    1
    81    57   116    1
    82    57   117    1
    83    58   118    1
    84    58   119    1
    85    58   120    1
    86    59   121    1
    87    59   122    1
    88    59   123    1
    89    60    61    2
    90     1    47    1
    91     1    62    1
    92     2    63    1
    93     3    64    1
    94     4    65    1
    95     5     6    1
    96     7     8    2
    97     9    78    1
    98    15    79    1
    99    18    80    1
   100    18    81    1
   101    19    82    1
   102    19    83    1
   103    20    23    1
   104    21    84    1
   105    21    85    1
   106    22    86    1
   107    22    87    1
   108    27    45    1
   109    28    34    1
   110    32    58    1
   111    33    46    2
   112    36    51    1
   113    36    66    1
   114    37    52    1
   115    37    67    1
   116    38    53    1
   117    38    68    1
   118    42    48    1
   119    42    72    1
   120    43    44    2
   121    60    73    1
   122    61    74    1
   123    39    69    1
   124    39    57    1
   125    40    70    1
   126    40    50    1
   127    41    71    1
   128    41    49    1
