@<TRIPOS>MOLECULE
*****
 123 128 0 0 0
SMALL
GASTEIGER

@<TRIPOS>ATOM
     1 C         4.325455   2.637035   -2.085242 C.3        1 UNL1     0.0009
     2 C         5.392348   2.892366   -3.579759 C.2        1 UNL1     -0.0787
     3 C         6.619529   2.639344   -4.305055 C.2        1 UNL1     -0.0649
     4 C         7.017945   3.124627   -5.877353 C.2        1 UNL1     -0.0542
     5 C         7.86219   2.881305   -6.988714 C.2        1 UNL1     0.0115
     6 C         9.116861   2.099631   -7.466322 C.3        1 UNL1     -0.0348
     7 C         7.443729   3.464516   -8.424592 C.2        1 UNL1     0.2441
     8 O         7.952848   4.465133   -8.910481 O.2        1 UNL1     -0.2702
     9 N         6.644   2.605874   -9.198749 N.am        1 UNL1     -0.2772
     10 C         5.312441   2.802041   -8.912756 C.2        1 UNL1     0.1049
     11 C         4.846298   2.17133   -7.850147 C.2        1 UNL1     0.0801
     12 C         3.580285   4.588925   -8.65974 C.ar        1 UNL1     0.0753
     13 C         3.251339   3.983132   -7.40538 C.ar        1 UNL1     0.0305
     14 C         3.785132   2.67789   -7.022681 C.2        1 UNL1     0.0924
     15 N         5.40306   1.196717   -7.110774 N.pl3        1 UNL1     -0.3170
     16 C         4.413314   0.736554   -6.173273 C.3        1 UNL1     0.1275
     17 N         3.514038   1.929202   -5.957364 N.2        1 UNL1     -0.2557
     18 C         3.564472   -0.309791   -6.889045 C.3        1 UNL1     0.0016
     19 C         4.481701   -1.400195   -7.41942 C.3        1 UNL1     0.0026
     20 N         5.204896   -1.988349   -6.300451 N.3        1 UNL1     -0.3018
     21 C         6.002813   -1.04694   -5.512133 C.3        1 UNL1     0.0026
     22 C         5.060795   0.037061   -4.985407 C.3        1 UNL1     0.0016
     23 C         5.875367   -3.224914   -6.649763 C.3        1 UNL1     0.0012
     24 C         4.85029   -4.345165   -6.886429 C.3        1 UNL1     -0.0339
     25 C         5.395906   -5.710742   -6.437476 C.3        1 UNL1     -0.0615
     26 C         3.54238   -4.009713   -6.190999 C.3        1 UNL1     -0.0615
     27 C         2.974408   5.774222   -9.069741 C.ar        1 UNL1     0.1347
     28 C         2.000029   6.422349   -8.331793 C.ar        1 UNL1     0.0342
     29 C         1.727702   5.834146   -7.07839 C.ar        1 UNL1     0.1435
     30 C         2.352992   4.666785   -6.6385 C.ar        1 UNL1     0.0774
     31 O         0.726138   6.284173   -6.291401 O.3        1 UNL1     -0.4436
     32 C         0.455581   5.198271   -5.392242 C.3        1 UNL1     0.3143
     33 C         1.731682   4.381654   -5.362004 C.2        1 UNL1     0.2504
     34 C         1.13106   7.54948   -8.816117 C.3        1 UNL1     -0.0327
     35 O         0.288425   5.759629   -4.0845 O.2        1 UNL1     -0.4528
     36 C         -2.12904   3.465014   -2.268269 C.3        1 UNL1     0.0854
     37 C         -2.013264   1.917401   -1.987178 C.3        1 UNL1     0.0236
     38 C         -2.141466   1.499273   -0.444298 C.3        1 UNL1     0.1131
     39 C         -1.253798   2.228494   0.643153 C.3        1 UNL1     0.0200
     40 C         0.360893   2.529485   0.352267 C.3        1 UNL1     0.0661
     41 C         1.498313   1.399313   -0.201445 C.3        1 UNL1     0.0091
     42 C         2.974568   1.621245   -1.267663 C.3        1 UNL1     0.0661
     43 C         4.52223   3.865989   -9.549887 C.2        1 UNL1     0.2131
     44 O         4.584144   4.045946   -10.752601 O.2        1 UNL1     -0.2851
     45 O         3.384302   6.321936   -10.283592 O.3        1 UNL1     -0.5056
     46 O         2.15188   3.672875   -4.474919 O.2        1 UNL1     -0.2836
     47 C         4.8716   3.457966   -0.886167 C.3        1 UNL1     -0.0566
     48 O         3.870766   0.834989   -0.385763 O.3        1 UNL1     -0.3909
     49 C         0.765063   0.178814   -0.711564 C.3        1 UNL1     -0.0577
     50 O         0.527061   3.756163   -0.329914 O.3        1 UNL1     -0.3910
     51 O         -2.154408   4.297525   -1.130853 O.3        1 UNL1     -0.3753
     52 C         -0.998797   1.224641   -2.954591 C.3        1 UNL1     -0.0564
     53 O         -2.379967   0.03207   -0.237511 O.3        1 UNL1     -0.4608
     54 C         -1.855189   -0.723382   0.778279 C.2        1 UNL1     0.3042
     55 O         -0.909629   -1.507985   0.713845 O.2        1 UNL1     -0.2512
     56 C         -2.512675   -0.483669   2.107551 C.3        1 UNL1     0.0332
     57 C         -2.131394   3.410418   1.2685 C.3        1 UNL1     -0.0567
     58 C         -0.661348   4.354272   -6.049252 C.3        1 UNL1     0.0210
     59 C         -3.423117   4.885138   -0.846331 C.3        1 UNL1     0.0372
     60 C         -1.091891   4.017575   -3.181592 C.2        1 UNL1     -0.0208
     61 C         -0.359698   5.128278   -3.086843 C.2        1 UNL1     0.0882
     62 H         3.549675   3.25153   -2.557758 H        1 UNL1     0.0365
     63 H         4.791204   3.612823   -4.13836 H        1 UNL1     0.0576
     64 H         7.369601   1.937484   -3.933718 H        1 UNL1     0.0615
     65 H         6.259894   3.874741   -6.118538 H        1 UNL1     0.0622
     66 H         -3.086579   3.578874   -2.795716 H        1 UNL1     0.0645
     67 H         -2.944602   1.498404   -2.406237 H        1 UNL1     0.0362
     68 H         -3.172794   1.830561   -0.249022 H        1 UNL1     0.0741
     69 H         -1.22408   1.617069   1.535165 H        1 UNL1     0.0359
     70 H         0.704847   2.73767   1.383487 H        1 UNL1     0.0600
     71 H         1.889505   1.028744   0.766339 H        1 UNL1     0.0348
     72 H         2.73134   2.619205   -0.874939 H        1 UNL1     0.0602
     73 H         -1.067723   3.440463   -4.072438 H        1 UNL1     0.0628
     74 H         -0.284157   5.742324   -2.188801 H        1 UNL1     0.1022
     75 H         9.949261   2.20651   -6.729627 H        1 UNL1     0.0279
     76 H         9.013703   1.019946   -7.548222 H        1 UNL1     0.0279
     77 H         9.569858   2.533577   -8.369752 H        1 UNL1     0.0279
     78 H         6.865903   1.637897   -8.975465 H        1 UNL1     0.1553
     79 H         6.160532   0.620314   -7.428467 H        1 UNL1     0.1484
     80 H         2.826847   -0.714094   -6.18533 H        1 UNL1     0.0317
     81 H         2.998771   0.141144   -7.711415 H        1 UNL1     0.0317
     82 H         5.175888   -1.013891   -8.180199 H        1 UNL1     0.0428
     83 H         3.856213   -2.134759   -7.927584 H        1 UNL1     0.0428
     84 H         6.471212   -1.498566   -4.632106 H        1 UNL1     0.0428
     85 H         6.848198   -0.645495   -6.087879 H        1 UNL1     0.0428
     86 H         5.649454   0.628469   -4.308868 H        1 UNL1     0.0317
     87 H         4.300214   -0.411359   -4.334613 H        1 UNL1     0.0317
     88 H         6.433579   -3.059619   -7.580554 H        1 UNL1     0.0429
     89 H         6.60634   -3.512523   -5.883125 H        1 UNL1     0.0429
     90 H         4.615873   -4.397393   -7.956258 H        1 UNL1     0.0308
     91 H         5.866222   -5.64655   -5.451684 H        1 UNL1     0.0233
     92 H         4.596413   -6.454656   -6.405648 H        1 UNL1     0.0233
     93 H         6.153059   -6.104843   -7.126126 H        1 UNL1     0.0233
     94 H         2.887588   -4.887664   -6.174095 H        1 UNL1     0.0233
     95 H         3.734855   -3.712742   -5.156241 H        1 UNL1     0.0233
     96 H         3.017055   -3.196565   -6.699715 H        1 UNL1     0.0233
     97 H         0.074895   7.30394   -8.757338 H        1 UNL1     0.0280
     98 H         1.26178   8.459836   -8.216601 H        1 UNL1     0.0280
     99 H         1.374724   7.778195   -9.866552 H        1 UNL1     0.0280
     100 H         4.317123   6.391742   -10.386519 H        1 UNL1     0.2922
     101 H         4.245907   4.335783   -0.726162 H        1 UNL1     0.0236
     102 H         5.924201   3.719343   -0.989588 H        1 UNL1     0.0236
     103 H         4.813283   2.896295   0.061102 H        1 UNL1     0.0236
     104 H         3.319458   0.438488   0.316957 H        1 UNL1     0.2098
     105 H         0.292751   0.311505   -1.681681 H        1 UNL1     0.0234
     106 H         1.34861   -0.741633   -0.698237 H        1 UNL1     0.0234
     107 H         0.0   -0.0   0.0 H        1 UNL1     0.0234
     108 H         1.441035   3.775544   -0.673491 H        1 UNL1     0.2098
     109 H         -1.295176   1.323108   -4.00824 H        1 UNL1     0.0234
     110 H         0.028964   1.581663   -2.828153 H        1 UNL1     0.0234
     111 H         -0.930897   0.145186   -2.764553 H        1 UNL1     0.0234
     112 H         -2.034867   -1.099512   2.875524 H        1 UNL1     0.0342
     113 H         -2.499926   0.56878   2.386894 H        1 UNL1     0.0342
     114 H         -3.563553   -0.795221   2.031688 H        1 UNL1     0.0342
     115 H         -1.905427   3.568123   2.332105 H        1 UNL1     0.0234
     116 H         -2.010065   4.369623   0.761298 H        1 UNL1     0.0234
     117 H         -3.210235   3.181947   1.31145 H        1 UNL1     0.0234
     118 H         -1.61823   4.437015   -5.5047 H        1 UNL1     0.0309
     119 H         -0.825711   4.604247   -7.1022 H        1 UNL1     0.0309
     120 H         -0.447526   3.280184   -6.022391 H        1 UNL1     0.0309
     121 H         -3.243106   5.806431   -0.293003 H        1 UNL1     0.0524
     122 H         -3.976042   5.150894   -1.762674 H        1 UNL1     0.0524
     123 H         -4.028295   4.204461   -0.254272 H        1 UNL1     0.0524
@<TRIPOS>BOND
     1     1     2    1
     2     1    42    1
     3     2     3    2
     4     3     4    1
     5     4     5    2
     6     5     7    1
     7     6    75    1
     8     6    76    1
     9     6    77    1
    10     7     9   am
    11     9    10    1
    12    10    11    2
    13    10    43    1
    14    11    14    1
    15    11    15    1
    16    12    13   ar
    17    12    27   ar
    18    12    43    1
    19    13    14    1
    20    13    30   ar
    21    14    17    2
    22    15    16    1
    23    16    17    1
    24    16    18    1
    25    16    22    1
    26    18    19    1
    27    19    20    1
    28    20    21    1
    29    21    22    1
    30    23    24    1
    31    23    88    1
    32    23    89    1
    33    24    25    1
    34    24    26    1
    35    24    90    1
    36    25    91    1
    37    25    92    1
    38    25    93    1
    39    26    94    1
    40    26    95    1
    41    26    96    1
    42    27    28   ar
    43    28    29   ar
    44    29    30   ar
    45    29    31    1
    46    30    33    1
    47    31    32    1
    48    32    33    1
    49    32    35    1
    50    34    97    1
    51    34    98    1
    52    34    99    1
    53    35    61    1
    54    36    37    1
    55    36    60    1
    56    37    38    1
    57    38    39    1
    58    39    40    1
    59    40    41    1
    60    41    42    1
    61    45   100    1
    62    47   101    1
    63    47   102    1
    64    47   103    1
    65    48   104    1
    66    49   105    1
    67    49   106    1
    68    49   107    1
    69    50   108    1
    70    51    59    1
    71    52   109    1
    72    52   110    1
    73    52   111    1
    74    53    54    1
    75    54    55    2
    76    54    56    1
    77    56   112    1
    78    56   113    1
    79    56   114    1
    80    57   115    1
    81    57   116    1
    82    57   117    1
    83    58   118    1
    84    58   119    1
    85    58   120    1
    86    59   121    1
    87    59   122    1
    88    59   123    1
    89    60    61    2
    90     1    47    1
    91     1    62    1
    92     2    63    1
    93     3    64    1
    94     4    65    1
    95     5     6    1
    96     7     8    2
    97     9    78    1
    98    15    79    1
    99    18    80    1
   100    18    81    1
   101    19    82    1
   102    19    83    1
   103    20    23    1
   104    21    84    1
   105    21    85    1
   106    22    86    1
   107    22    87    1
   108    27    45    1
   109    28    34    1
   110    32    58    1
   111    33    46    2
   112    36    51    1
   113    36    66    1
   114    37    52    1
   115    37    67    1
   116    38    53    1
   117    38    68    1
   118    42    48    1
   119    42    72    1
   120    43    44    2
   121    60    73    1
   122    61    74    1
   123    39    69    1
   124    39    57    1
   125    40    70    1
   126    40    50    1
   127    41    71    1
   128    41    49    1
