@<TRIPOS>MOLECULE
*****
 123 128 0 0 0
SMALL
GASTEIGER

@<TRIPOS>ATOM
     1 C         3.908306   -1.368044   3.351593 C.3        1 UNL1     0.0009
     2 C         5.738305   -1.65981   3.406483 C.2        1 UNL1     -0.0787
     3 C         6.862862   -2.557233   3.567881 C.2        1 UNL1     -0.0649
     4 C         8.508244   -2.209154   3.373163 C.2        1 UNL1     -0.0542
     5 C         9.79286   -2.76156   3.145814 C.2        1 UNL1     0.0115
     6 C         10.595561   -4.089892   3.078508 C.3        1 UNL1     -0.0348
     7 C         10.971502   -1.801045   2.630838 C.2        1 UNL1     0.2441
     8 O         11.850823   -1.373701   3.36616 O.2        1 UNL1     -0.2702
     9 N         11.076527   -1.695002   1.233027 N.am        1 UNL1     -0.2772
     10 C         10.269362   -0.683126   0.766214 C.2        1 UNL1     0.1049
     11 C         8.998292   -0.990669   0.581767 C.2        1 UNL1     0.0801
     12 C         9.673137   1.715715   1.150153 C.ar        1 UNL1     0.0753
     13 C         8.305264   1.294368   1.149798 C.ar        1 UNL1     0.0305
     14 C         7.919566   -0.052327   0.734226 C.2        1 UNL1     0.0924
     15 N         8.392039   -2.190224   0.574563 N.pl3        1 UNL1     -0.3170
     16 C         7.029386   -1.99138   0.157558 C.3        1 UNL1     0.1275
     17 N         6.707886   -0.57811   0.578308 N.2        1 UNL1     -0.2557
     18 C         7.018764   -1.991818   -1.368086 C.3        1 UNL1     0.0016
     19 C         7.642435   -3.288822   -1.858397 C.3        1 UNL1     0.0026
     20 N         6.874019   -4.406875   -1.328754 N.3        1 UNL1     -0.3018
     21 C         6.774974   -4.456953   0.131401 C.3        1 UNL1     0.0026
     22 C         6.141689   -3.146421   0.601878 C.3        1 UNL1     0.0016
     23 C         7.196064   -5.666356   -1.969562 C.3        1 UNL1     0.0012
     24 C         7.984965   -5.424786   -3.26611 C.3        1 UNL1     -0.0339
     25 C         7.796655   -6.580482   -4.262586 C.3        1 UNL1     -0.0615
     26 C         7.58934   -4.091086   -3.875622 C.3        1 UNL1     -0.0615
     27 C         10.021995   3.034672   1.430811 C.ar        1 UNL1     0.1347
     28 C         9.092266   4.027012   1.685597 C.ar        1 UNL1     0.0342
     29 C         7.755025   3.578527   1.728154 C.ar        1 UNL1     0.1435
     30 C         7.393403   2.252938   1.484712 C.ar        1 UNL1     0.0774
     31 O         6.725286   4.443616   1.855692 O.3        1 UNL1     -0.4436
     32 C         5.579442   3.714603   1.390443 C.3        1 UNL1     0.3143
     33 C         5.946966   2.253473   1.552424 C.2        1 UNL1     0.2504
     34 C         9.371966   5.502909   1.745549 C.3        1 UNL1     -0.0327
     35 O         4.507039   3.978729   2.303373 O.2        1 UNL1     -0.4528
     36 C         1.317666   3.741152   0.25898 C.3        1 UNL1     0.0854
     37 C         0.773505   2.536944   -0.602005 C.3        1 UNL1     0.0236
     38 C         -0.708162   2.052311   -0.225789 C.3        1 UNL1     0.1131
     39 C         -1.072384   1.737538   1.281039 C.3        1 UNL1     0.0200
     40 C         -0.018079   0.873322   2.242292 C.3        1 UNL1     0.0661
     41 C         0.716777   -0.600501   1.835545 C.3        1 UNL1     0.0091
     42 C         2.356974   -1.279915   2.297666 C.3        1 UNL1     0.0661
     43 C         10.701882   0.722266   0.753918 C.2        1 UNL1     0.2131
     44 O         11.806081   1.025488   0.339746 O.2        1 UNL1     -0.2851
     45 O         11.37854   3.351871   1.455484 O.3        1 UNL1     -0.5056
     46 O         5.212452   1.306004   1.721679 O.2        1 UNL1     -0.2836
     47 C         3.313631   -1.401681   4.785193 C.3        1 UNL1     -0.0566
     48 O         1.82582   -2.612093   2.674885 O.3        1 UNL1     -0.3909
     49 C         0.541891   -0.840082   0.352471 C.3        1 UNL1     -0.0577
     50 O         0.925869   1.732611   2.849176 O.3        1 UNL1     -0.3910
     51 O         0.518545   4.125544   1.354918 O.3        1 UNL1     -0.3753
     52 C         1.908659   1.528053   -0.97418 C.3        1 UNL1     -0.0564
     53 O         -1.331215   1.164599   -1.263141 O.3        1 UNL1     -0.4608
     54 C         -0.988944   1.130242   -2.58964 C.2        1 UNL1     0.3042
     55 O         -0.00621   0.587929   -3.093594 O.2        1 UNL1     -0.2512
     56 C         -1.991586   1.798284   -3.486937 C.3        1 UNL1     0.0332
     57 C         -1.738727   3.052752   1.901017 C.3        1 UNL1     -0.0567
     58 C         5.442653   4.030433   -0.117227 C.3        1 UNL1     0.0210
     59 C         -0.525541   5.046224   1.041711 C.3        1 UNL1     0.0372
     60 C         2.702291   3.568763   0.776913 C.2        1 UNL1     -0.0208
     61 C         3.208866   3.809657   1.986912 C.2        1 UNL1     0.0882
     62 H         4.102665   -0.314289   3.118064 H        1 UNL1     0.0365
     63 H         6.110527   -0.638619   3.301175 H        1 UNL1     0.0576
     64 H         6.723807   -3.634892   3.679342 H        1 UNL1     0.0615
     65 H         8.542763   -1.11652   3.352144 H        1 UNL1     0.0622
     66 H         1.3617   4.585162   -0.443696 H        1 UNL1     0.0645
     67 H         0.613976   2.973724   -1.603171 H        1 UNL1     0.0362
     68 H         -1.269619   2.965062   -0.47713 H        1 UNL1     0.0741
     69 H         -1.966546   1.128939   1.303132 H        1 UNL1     0.0359
     70 H         -0.700946   0.587388   3.065088 H        1 UNL1     0.0600
     71 H         -0.022781   -1.308432   2.258447 H        1 UNL1     0.0348
     72 H         2.137322   -0.491666   3.03233 H        1 UNL1     0.0602
     73 H         3.347324   3.316582   -0.027814 H        1 UNL1     0.0628
     74 H         2.611503   4.016536   2.875504 H        1 UNL1     0.1022
     75 H         10.50477   -4.551912   2.065923 H        1 UNL1     0.0279
     76 H         11.673103   -4.012512   3.204933 H        1 UNL1     0.0279
     77 H         10.167904   -4.877948   3.715515 H        1 UNL1     0.0279
     78 H         10.763379   -2.561218   0.799799 H        1 UNL1     0.1553
     79 H         8.877928   -3.059105   0.448507 H        1 UNL1     0.1484
     80 H         5.984823   -1.88704   -1.71845 H        1 UNL1     0.0317
     81 H         7.572218   -1.133333   -1.763488 H        1 UNL1     0.0317
     82 H         8.701569   -3.365241   -1.5715 H        1 UNL1     0.0428
     83 H         7.626395   -3.267453   -2.948505 H        1 UNL1     0.0428
     84 H         6.127466   -5.258681   0.49988 H        1 UNL1     0.0428
     85 H         7.747214   -4.662475   0.600257 H        1 UNL1     0.0428
     86 H         5.963266   -3.272276   1.653693 H        1 UNL1     0.0317
     87 H         5.132708   -3.046419   0.183485 H        1 UNL1     0.0317
     88 H         7.823393   -6.248737   -1.282113 H        1 UNL1     0.0429
     89 H         6.292247   -6.259144   -2.160589 H        1 UNL1     0.0429
     90 H         9.051688   -5.340187   -3.02703 H        1 UNL1     0.0308
     91 H         7.902685   -6.236135   -5.29568 H        1 UNL1     0.0233
     92 H         8.521588   -7.37565   -4.073404 H        1 UNL1     0.0233
     93 H         6.806072   -7.044241   -4.181918 H        1 UNL1     0.0233
     94 H         6.50187   -3.965705   -3.836577 H        1 UNL1     0.0233
     95 H         8.043579   -3.272505   -3.310331 H        1 UNL1     0.0233
     96 H         7.908263   -4.018976   -4.919201 H        1 UNL1     0.0233
     97 H         9.640866   5.826317   2.746714 H        1 UNL1     0.0280
     98 H         10.212318   5.79138   1.100686 H        1 UNL1     0.0280
     99 H         8.47521   6.061539   1.431137 H        1 UNL1     0.0280
     100 H         11.912762   2.831692   0.881339 H        1 UNL1     0.2922
     101 H         3.998404   -0.914211   5.478818 H        1 UNL1     0.0236
     102 H         3.043825   -2.404743   5.113911 H        1 UNL1     0.0236
     103 H         2.379224   -0.820708   4.859675 H        1 UNL1     0.0236
     104 H         1.398614   -2.522521   3.549209 H        1 UNL1     0.2098
     105 H         1.472681   -0.894052   -0.206572 H        1 UNL1     0.0234
     106 H         -0.099837   -1.684136   0.100109 H        1 UNL1     0.0234
     107 H         0.0   0.0   0.0 H        1 UNL1     0.0234
     108 H         1.404342   2.190908   2.131683 H        1 UNL1     0.2098
     109 H         2.071701   1.467083   -2.059266 H        1 UNL1     0.0234
     110 H         2.858084   1.744207   -0.472569 H        1 UNL1     0.0234
     111 H         1.664081   0.506944   -0.65252 H        1 UNL1     0.0234
     112 H         -2.080358   2.856483   -3.222966 H        1 UNL1     0.0342
     113 H         -1.742772   1.677895   -4.540238 H        1 UNL1     0.0342
     114 H         -2.9696   1.326323   -3.319885 H        1 UNL1     0.0342
     115 H         -2.764627   2.866366   2.247396 H        1 UNL1     0.0234
     116 H         -1.1823   3.480229   2.737499 H        1 UNL1     0.0234
     117 H         -1.906261   3.85252   1.159232 H        1 UNL1     0.0234
     118 H         4.41627   4.336561   -0.38524 H        1 UNL1     0.0309
     119 H         6.145946   4.795332   -0.461484 H        1 UNL1     0.0309
     120 H         5.617125   3.152077   -0.748224 H        1 UNL1     0.0309
     121 H         -0.094345   6.046934   1.043982 H        1 UNL1     0.0524
     122 H         -0.951604   4.870609   0.039879 H        1 UNL1     0.0524
     123 H         -1.320014   4.978731   1.779513 H        1 UNL1     0.0524
@<TRIPOS>BOND
     1     1     2    1
     2     1    42    1
     3     2     3    2
     4     3     4    1
     5     4     5    2
     6     5     7    1
     7     6    75    1
     8     6    76    1
     9     6    77    1
    10     7     9   am
    11     9    10    1
    12    10    11    2
    13    10    43    1
    14    11    14    1
    15    11    15    1
    16    12    13   ar
    17    12    27   ar
    18    12    43    1
    19    13    14    1
    20    13    30   ar
    21    14    17    2
    22    15    16    1
    23    16    17    1
    24    16    18    1
    25    16    22    1
    26    18    19    1
    27    19    20    1
    28    20    21    1
    29    21    22    1
    30    23    24    1
    31    23    88    1
    32    23    89    1
    33    24    25    1
    34    24    26    1
    35    24    90    1
    36    25    91    1
    37    25    92    1
    38    25    93    1
    39    26    94    1
    40    26    95    1
    41    26    96    1
    42    27    28   ar
    43    28    29   ar
    44    29    30   ar
    45    29    31    1
    46    30    33    1
    47    31    32    1
    48    32    33    1
    49    32    35    1
    50    34    97    1
    51    34    98    1
    52    34    99    1
    53    35    61    1
    54    36    37    1
    55    36    60    1
    56    37    38    1
    57    38    39    1
    58    39    40    1
    59    40    41    1
    60    41    42    1
    61    45   100    1
    62    47   101    1
    63    47   102    1
    64    47   103    1
    65    48   104    1
    66    49   105    1
    67    49   106    1
    68    49   107    1
    69    50   108    1
    70    51    59    1
    71    52   109    1
    72    52   110    1
    73    52   111    1
    74    53    54    1
    75    54    55    2
    76    54    56    1
    77    56   112    1
    78    56   113    1
    79    56   114    1
    80    57   115    1
    81    57   116    1
    82    57   117    1
    83    58   118    1
    84    58   119    1
    85    58   120    1
    86    59   121    1
    87    59   122    1
    88    59   123    1
    89    60    61    2
    90     1    47    1
    91     1    62    1
    92     2    63    1
    93     3    64    1
    94     4    65    1
    95     5     6    1
    96     7     8    2
    97     9    78    1
    98    15    79    1
    99    18    80    1
   100    18    81    1
   101    19    82    1
   102    19    83    1
   103    20    23    1
   104    21    84    1
   105    21    85    1
   106    22    86    1
   107    22    87    1
   108    27    45    1
   109    28    34    1
   110    32    58    1
   111    33    46    2
   112    36    51    1
   113    36    66    1
   114    37    52    1
   115    37    67    1
   116    38    53    1
   117    38    68    1
   118    42    48    1
   119    42    72    1
   120    43    44    2
   121    60    73    1
   122    61    74    1
   123    39    69    1
   124    39    57    1
   125    40    70    1
   126    40    50    1
   127    41    71    1
   128    41    49    1
