@<TRIPOS>MOLECULE
*****
 123 128 0 0 0
SMALL
GASTEIGER

@<TRIPOS>ATOM
     1 C         -3.665939   1.012843   3.912346 C.3        1 UNL1     0.0009
     2 C         -4.443048   2.338091   4.950064 C.2        1 UNL1     -0.0787
     3 C         -4.60262   3.001993   6.226706 C.2        1 UNL1     -0.0649
     4 C         -5.481563   4.408821   6.565307 C.2        1 UNL1     -0.0542
     5 C         -5.655506   5.477477   7.478979 C.2        1 UNL1     0.0115
     6 C         -5.262432   6.003695   8.886782 C.3        1 UNL1     -0.0348
     7 C         -6.434571   6.794787   6.994476 C.2        1 UNL1     0.2441
     8 O         -7.597216   7.02852   7.294728 O.2        1 UNL1     -0.2702
     9 N         -5.617429   7.785478   6.422669 N.am        1 UNL1     -0.2772
     10 C         -5.476012   7.570084   5.07103 C.2        1 UNL1     0.1049
     11 C         -4.552904   6.695465   4.71447 C.2        1 UNL1     0.0801
     12 C         -6.781857   7.098081   2.990329 C.ar        1 UNL1     0.0753
     13 C         -5.869371   6.020561   2.755961 C.ar        1 UNL1     0.0305
     14 C         -4.647413   5.867925   3.542454 C.2        1 UNL1     0.0924
     15 N         -3.575749   6.126267   5.440906 N.pl3        1 UNL1     -0.3170
     16 C         -2.736922   5.380146   4.540947 C.3        1 UNL1     0.1275
     17 N         -3.650199   4.99925   3.4014 N.2        1 UNL1     -0.2557
     18 C         -1.717997   6.355383   3.959219 C.3        1 UNL1     0.0016
     19 C         -0.97304   7.021397   5.105104 C.3        1 UNL1     0.0026
     20 N         -0.318072   5.990894   5.898898 N.3        1 UNL1     -0.3018
     21 C         -1.21097   4.969871   6.450818 C.3        1 UNL1     0.0026
     22 C         -1.94559   4.310631   5.282215 C.3        1 UNL1     0.0016
     23 C         0.654858   6.528644   6.828884 C.3        1 UNL1     0.0012
     24 C         0.098218   6.510365   8.261216 C.3        1 UNL1     -0.0339
     25 C         0.760538   5.411087   9.107961 C.3        1 UNL1     -0.0615
     26 C         0.257199   7.879466   8.899235 C.3        1 UNL1     -0.0615
     27 C         -7.880435   7.307093   2.159932 C.ar        1 UNL1     0.1347
     28 C         -8.146828   6.531762   1.045505 C.ar        1 UNL1     0.0342
     29 C         -7.262763   5.447245   0.862707 C.ar        1 UNL1     0.1435
     30 C         -6.178879   5.203934   1.707228 C.ar        1 UNL1     0.0774
     31 O         -7.323839   4.665975   -0.237699 O.3        1 UNL1     -0.4436
     32 C         -6.039696   4.027325   -0.300762 C.3        1 UNL1     0.3143
     33 C         -5.509405   4.063   1.118298 C.2        1 UNL1     0.2504
     34 C         -9.152648   6.845463   -0.026884 C.3        1 UNL1     -0.0327
     35 O         -6.264337   2.650407   -0.627692 O.2        1 UNL1     -0.4528
     36 C         -3.197051   1.525915   -2.560401 C.3        1 UNL1     0.0854
     37 C         -1.680834   1.553677   -2.127 C.3        1 UNL1     0.0236
     38 C         -0.926764   0.141102   -2.215072 C.3        1 UNL1     0.1131
     39 C         -1.57117   -1.136315   -1.540375 C.3        1 UNL1     0.0200
     40 C         -2.245967   -1.038094   -0.018061 C.3        1 UNL1     0.0661
     41 C         -1.512288   -0.35838   1.35209 C.3        1 UNL1     0.0091
     42 C         -2.248696   0.523588   2.782208 C.3        1 UNL1     0.0661
     43 C         -6.469811   8.039594   4.094159 C.2        1 UNL1     0.2131
     44 O         -6.910396   9.17304   4.156798 O.2        1 UNL1     -0.2851
     45 O         -8.745064   8.350455   2.484354 O.3        1 UNL1     -0.5056
     46 O         -4.727473   3.306699   1.649754 O.2        1 UNL1     -0.2836
     47 C         -4.305505   -0.365514   4.230257 C.3        1 UNL1     -0.0566
     48 O         -1.489626   -0.249005   3.795139 O.3        1 UNL1     -0.3909
     49 C         -0.306343   0.442092   0.913416 C.3        1 UNL1     -0.0577
     50 O         -3.597495   -0.631531   -0.094244 O.3        1 UNL1     -0.3910
     51 O         -3.745753   0.249786   -2.80093 O.3        1 UNL1     -0.3753
     52 C         -1.428691   2.558943   -0.956183 C.3        1 UNL1     -0.0564
     53 O         0.56808   0.252741   -2.142236 O.3        1 UNL1     -0.4608
     54 C         1.442432   -0.80108   -2.088407 C.2        1 UNL1     0.3042
     55 O         1.191513   -1.964558   -1.776642 O.2        1 UNL1     -0.2512
     56 C         2.836725   -0.44845   -2.522357 C.3        1 UNL1     0.0332
     57 C         -2.391388   -1.916549   -2.670266 C.3        1 UNL1     -0.0567
     58 C         -5.14775   4.925293   -1.189366 C.3        1 UNL1     0.0210
     59 C         -5.051322   0.257478   -3.376512 C.3        1 UNL1     0.0372
     60 C         -4.128617   2.226165   -1.634661 C.2        1 UNL1     -0.0208
     61 C         -5.317807   1.853462   -1.159621 C.2        1 UNL1     0.0882
     62 H         -4.197873   1.410874   3.039805 H        1 UNL1     0.0365
     63 H         -5.129781   2.785322   4.228363 H        1 UNL1     0.0576
     64 H         -4.003522   2.722327   7.096175 H        1 UNL1     0.0615
     65 H         -6.097481   4.552311   5.673377 H        1 UNL1     0.0622
     66 H         -3.225426   2.092369   -3.501874 H        1 UNL1     0.0645
     67 H         -1.18194   2.119416   -2.93298 H        1 UNL1     0.0362
     68 H         -0.994297   -0.036177   -3.299292 H        1 UNL1     0.0741
     69 H         -0.802654   -1.886704   -1.411115 H        1 UNL1     0.0359
     70 H         -2.294713   -2.113628   0.238667 H        1 UNL1     0.0600
     71 H         -1.030701   -1.259246   1.780424 H        1 UNL1     0.0348
     72 H         -3.070269   -0.041721   2.318789 H        1 UNL1     0.0602
     73 H         -3.771367   3.210252   -1.458044 H        1 UNL1     0.0628
     74 H         -5.728914   0.847184   -1.246991 H        1 UNL1     0.1022
     75 H         -4.51736   5.323506   9.365578 H        1 UNL1     0.0279
     76 H         -4.756987   6.966196   8.921224 H        1 UNL1     0.0279
     77 H         -6.093234   5.95579   9.605931 H        1 UNL1     0.0279
     78 H         -4.689078   7.744886   6.838115 H        1 UNL1     0.1553
     79 H         -3.244788   6.493629   6.314086 H        1 UNL1     0.1484
     80 H         -1.033111   5.806755   3.301416 H        1 UNL1     0.0317
     81 H         -2.21033   7.111633   3.338457 H        1 UNL1     0.0317
     82 H         -1.644122   7.632738   5.726252 H        1 UNL1     0.0428
     83 H         -0.252979   7.713875   4.668026 H        1 UNL1     0.0428
     84 H         -0.68611   4.165009   6.974774 H        1 UNL1     0.0428
     85 H         -1.887574   5.385751   7.210139 H        1 UNL1     0.0428
     86 H         -2.485517   3.485384   5.708166 H        1 UNL1     0.0317
     87 H         -1.225169   3.824334   4.613183 H        1 UNL1     0.0317
     88 H         1.5491   5.89275   6.793314 H        1 UNL1     0.0429
     89 H         0.967566   7.539899   6.538452 H        1 UNL1     0.0429
     90 H         -0.981042   6.320412   8.224747 H        1 UNL1     0.0308
     91 H         0.030857   4.660749   9.426804 H        1 UNL1     0.0233
     92 H         1.558671   4.919436   8.546827 H        1 UNL1     0.0233
     93 H         1.226447   5.808504   10.017809 H        1 UNL1     0.0233
     94 H         -0.663942   8.460362   8.781358 H        1 UNL1     0.0233
     95 H         0.453508   7.772302   9.969721 H        1 UNL1     0.0233
     96 H         1.079189   8.438894   8.443887 H        1 UNL1     0.0233
     97 H         -9.42173   7.897462   -0.037971 H        1 UNL1     0.0280
     98 H         -8.769741   6.622597   -1.031358 H        1 UNL1     0.0280
     99 H         -10.068716   6.256233   0.142597 H        1 UNL1     0.0280
     100 H         -8.757175   8.579482   3.397055 H        1 UNL1     0.2922
     101 H         -4.632445   -0.388183   5.269609 H        1 UNL1     0.0236
     102 H         -3.655845   -1.205736   3.987455 H        1 UNL1     0.0236
     103 H         -5.223106   -0.541308   3.64434 H        1 UNL1     0.0236
     104 H         -0.841278   0.357418   4.203632 H        1 UNL1     0.2098
     105 H         -0.509899   1.49281   0.722711 H        1 UNL1     0.0234
     106 H         0.568006   0.337185   1.555628 H        1 UNL1     0.0234
     107 H         0.0   0.0   0.0 H        1 UNL1     0.0234
     108 H         -3.98917   -1.071059   -0.873458 H        1 UNL1     0.2098
     109 H         -0.655028   3.299376   -1.202996 H        1 UNL1     0.0234
     110 H         -2.337799   3.074363   -0.628146 H        1 UNL1     0.0234
     111 H         -1.072346   2.046657   -0.052563 H        1 UNL1     0.0234
     112 H         2.827832   -0.107254   -3.561998 H        1 UNL1     0.0342
     113 H         3.292569   0.295586   -1.870851 H        1 UNL1     0.0342
     114 H         3.452081   -1.357245   -2.471415 H        1 UNL1     0.0342
     115 H         -2.91811   -1.225786   -3.343021 H        1 UNL1     0.0234
     116 H         -1.77831   -2.574405   -3.289466 H        1 UNL1     0.0234
     117 H         -3.232761   -2.509749   -2.272588 H        1 UNL1     0.0234
     118 H         -4.155992   4.475105   -1.370343 H        1 UNL1     0.0309
     119 H         -5.609513   5.172763   -2.150477 H        1 UNL1     0.0309
     120 H         -4.907653   5.882127   -0.712997 H        1 UNL1     0.0309
     121 H         -4.964043   0.657234   -4.38643 H        1 UNL1     0.0524
     122 H         -5.479317   -0.755677   -3.456359 H        1 UNL1     0.0524
     123 H         -5.719355   0.876793   -2.784673 H        1 UNL1     0.0524
@<TRIPOS>BOND
     1     1     2    1
     2     1    42    1
     3     2     3    2
     4     3     4    1
     5     4     5    2
     6     5     7    1
     7     6    75    1
     8     6    76    1
     9     6    77    1
    10     7     9   am
    11     9    10    1
    12    10    11    2
    13    10    43    1
    14    11    14    1
    15    11    15    1
    16    12    13   ar
    17    12    27   ar
    18    12    43    1
    19    13    14    1
    20    13    30   ar
    21    14    17    2
    22    15    16    1
    23    16    17    1
    24    16    18    1
    25    16    22    1
    26    18    19    1
    27    19    20    1
    28    20    21    1
    29    21    22    1
    30    23    24    1
    31    23    88    1
    32    23    89    1
    33    24    25    1
    34    24    26    1
    35    24    90    1
    36    25    91    1
    37    25    92    1
    38    25    93    1
    39    26    94    1
    40    26    95    1
    41    26    96    1
    42    27    28   ar
    43    28    29   ar
    44    29    30   ar
    45    29    31    1
    46    30    33    1
    47    31    32    1
    48    32    33    1
    49    32    35    1
    50    34    97    1
    51    34    98    1
    52    34    99    1
    53    35    61    1
    54    36    37    1
    55    36    60    1
    56    37    38    1
    57    38    39    1
    58    39    40    1
    59    40    41    1
    60    41    42    1
    61    45   100    1
    62    47   101    1
    63    47   102    1
    64    47   103    1
    65    48   104    1
    66    49   105    1
    67    49   106    1
    68    49   107    1
    69    50   108    1
    70    51    59    1
    71    52   109    1
    72    52   110    1
    73    52   111    1
    74    53    54    1
    75    54    55    2
    76    54    56    1
    77    56   112    1
    78    56   113    1
    79    56   114    1
    80    57   115    1
    81    57   116    1
    82    57   117    1
    83    58   118    1
    84    58   119    1
    85    58   120    1
    86    59   121    1
    87    59   122    1
    88    59   123    1
    89    60    61    2
    90     1    47    1
    91     1    62    1
    92     2    63    1
    93     3    64    1
    94     4    65    1
    95     5     6    1
    96     7     8    2
    97     9    78    1
    98    15    79    1
    99    18    80    1
   100    18    81    1
   101    19    82    1
   102    19    83    1
   103    20    23    1
   104    21    84    1
   105    21    85    1
   106    22    86    1
   107    22    87    1
   108    27    45    1
   109    28    34    1
   110    32    58    1
   111    33    46    2
   112    36    51    1
   113    36    66    1
   114    37    52    1
   115    37    67    1
   116    38    53    1
   117    38    68    1
   118    42    48    1
   119    42    72    1
   120    43    44    2
   121    60    73    1
   122    61    74    1
   123    39    69    1
   124    39    57    1
   125    40    70    1
   126    40    50    1
   127    41    71    1
   128    41    49    1
