@<TRIPOS>MOLECULE
*****
 123 128 0 0 0
SMALL
GASTEIGER

@<TRIPOS>ATOM
     1 C         -3.845036   1.148472   3.667486 C.3        1 UNL1     0.0009
     2 C         -4.716489   2.528783   4.54632 C.2        1 UNL1     -0.0787
     3 C         -4.966636   3.290247   5.751992 C.2        1 UNL1     -0.0649
     4 C         -5.902419   4.690776   5.922841 C.2        1 UNL1     -0.0542
     5 C         -6.157698   5.824961   6.732492 C.2        1 UNL1     0.0115
     6 C         -5.859871   6.478157   8.110155 C.3        1 UNL1     -0.0348
     7 C         -6.944684   7.071633   6.097315 C.2        1 UNL1     0.2441
     8 O         -8.128558   7.291269   6.313484 O.2        1 UNL1     -0.2702
     9 N         -6.124557   8.037887   5.489124 N.am        1 UNL1     -0.2772
     10 C         -5.90085   7.716376   4.170068 C.2        1 UNL1     0.1049
     11 C         -4.934887   6.845915   3.938906 C.2        1 UNL1     0.0801
     12 C         -7.073039   7.031826   2.06895 C.ar        1 UNL1     0.0753
     13 C         -6.118911   5.969006   1.975883 C.ar        1 UNL1     0.0305
     14 C         -4.939652   5.921801   2.837377 C.2        1 UNL1     0.0924
     15 N         -3.984869   6.370841   4.762494 N.pl3        1 UNL1     -0.3170
     16 C         -3.07585   5.580759   3.975279 C.3        1 UNL1     0.1275
     17 N         -3.912102   5.077471   2.824146 N.2        1 UNL1     -0.2557
     18 C         -2.053348   6.537389   3.369432 C.3        1 UNL1     0.0016
     19 C         -1.393428   7.319697   4.49375 C.3        1 UNL1     0.0026
     20 N         -0.755841   6.38018   5.405791 N.3        1 UNL1     -0.3018
     21 C         -1.649596   5.379598   5.992653 C.3        1 UNL1     0.0026
     22 C         -2.298103   4.602501   4.845721 C.3        1 UNL1     0.0016
     23 C         0.147416   7.024349   6.33843 C.3        1 UNL1     0.0012
     24 C         0.476486   8.450999   5.871378 C.3        1 UNL1     -0.0339
     25 C         -0.236225   9.504128   6.735682 C.3        1 UNL1     -0.0615
     26 C         1.980592   8.661553   5.860693 C.3        1 UNL1     -0.0615
     27 C         -8.128258   7.135589   1.165697 C.ar        1 UNL1     0.1347
     28 C         -8.309288   6.26262   0.107773 C.ar        1 UNL1     0.0342
     29 C         -7.386248   5.19616   0.06507 C.ar        1 UNL1     0.1435
     30 C         -6.345533   5.05892   0.98447 C.ar        1 UNL1     0.0774
     31 O         -7.362998   4.325136   -0.967298 O.3        1 UNL1     -0.4436
     32 C         -6.059954   3.725731   -0.906788 C.3        1 UNL1     0.3143
     33 C         -5.612076   3.89573   0.530821 C.2        1 UNL1     0.2504
     34 C         -9.261165   6.453709   -1.040058 C.3        1 UNL1     -0.0327
     35 O         -6.22705   2.319924   -1.128235 O.2        1 UNL1     -0.4528
     36 C         -3.024941   1.140468   -2.790604 C.3        1 UNL1     0.0854
     37 C         -1.537072   1.253406   -2.279709 C.3        1 UNL1     0.0236
     38 C         -0.739939   -0.136241   -2.207558 C.3        1 UNL1     0.1131
     39 C         -1.385467   -1.373955   -1.463497 C.3        1 UNL1     0.0200
     40 C         -2.14787   -1.172479   0.006397 C.3        1 UNL1     0.0661
     41 C         -1.512288   -0.35838   1.35209 C.3        1 UNL1     0.0091
     42 C         -2.35292   0.614125   2.660897 C.3        1 UNL1     0.0661
     43 C         -6.850505   8.070938   3.1048 C.2        1 UNL1     0.2131
     44 O         -7.325518   9.190693   3.047814 O.2        1 UNL1     -0.2851
     45 O         -9.038768   8.173383   1.353831 O.3        1 UNL1     -0.5056
     46 O         -4.840607   3.211822   1.165611 O.2        1 UNL1     -0.2836
     47 C         -4.462702   -0.21908   4.065319 C.3        1 UNL1     -0.0566
     48 O         -1.631074   -0.04701   3.774879 O.3        1 UNL1     -0.3909
     49 C         -0.306343   0.442092   0.913416 C.3        1 UNL1     -0.0577
     50 O         -3.503776   -0.81794   -0.176754 O.3        1 UNL1     -0.3910
     51 O         -3.523167   -0.168395   -2.952103 O.3        1 UNL1     -0.3753
     52 C         -1.3799   2.359593   -1.185819 C.3        1 UNL1     -0.0564
     53 O         0.744666   0.029779   -2.063639 O.3        1 UNL1     -0.4608
     54 C         1.415236   1.224872   -2.068136 C.2        1 UNL1     0.3042
     55 O         1.004467   2.310226   -2.476929 O.2        1 UNL1     -0.2512
     56 C         2.77846   1.151922   -1.441229 C.3        1 UNL1     0.0332
     57 C         -2.118202   -2.271167   -2.566349 C.3        1 UNL1     -0.0567
     58 C         -5.144635   4.575917   -1.818328 C.3        1 UNL1     0.0210
     59 C         -3.207667   -0.779856   -4.202079 C.3        1 UNL1     0.0372
     60 C         -4.026689   1.883961   -1.97889 C.2        1 UNL1     -0.0208
     61 C         -5.229959   1.513118   -1.539161 C.2        1 UNL1     0.0882
     62 H         -4.337653   1.455531   2.737027 H        1 UNL1     0.0365
     63 H         -5.373516   2.892245   3.753426 H        1 UNL1     0.0576
     64 H         -4.410132   3.103026   6.673056 H        1 UNL1     0.0615
     65 H         -6.470621   4.739954   4.98999 H        1 UNL1     0.0622
     66 H         -3.015821   1.626035   -3.7766 H        1 UNL1     0.0645
     67 H         -1.00939   1.766662   -3.102314 H        1 UNL1     0.0362
     68 H         -0.740975   -0.404533   -3.275051 H        1 UNL1     0.0741
     69 H         -0.604778   -2.085616   -1.230106 H        1 UNL1     0.0359
     70 H         -2.180916   -2.224164   0.349801 H        1 UNL1     0.0600
     71 H         -1.030673   -1.204603   1.880209 H        1 UNL1     0.0348
     72 H         -3.13077   -0.014035   2.202989 H        1 UNL1     0.0602
     73 H         -3.707729   2.890408   -1.866737 H        1 UNL1     0.0628
     74 H         -5.607098   0.490177   -1.56356 H        1 UNL1     0.1022
     75 H         -5.251688   7.405758   7.980918 H        1 UNL1     0.0279
     76 H         -6.718757   6.837612   8.672451 H        1 UNL1     0.0279
     77 H         -5.192681   5.866819   8.735316 H        1 UNL1     0.0279
     78 H         -5.220448   8.062065   5.956114 H        1 UNL1     0.1553
     79 H         -3.714308   6.819645   5.618242 H        1 UNL1     0.1484
     80 H         -1.317208   5.958985   2.798194 H        1 UNL1     0.0317
     81 H         -2.530738   7.223331   2.661454 H        1 UNL1     0.0317
     82 H         -2.115473   7.957991   5.023981 H        1 UNL1     0.0428
     83 H         -0.669461   7.996867   4.03948 H        1 UNL1     0.0428
     84 H         -1.132901   4.638307   6.610167 H        1 UNL1     0.0428
     85 H         -2.379499   5.83443   6.67653 H        1 UNL1     0.0428
     86 H         -2.837946   3.798048   5.309846 H        1 UNL1     0.0317
     87 H         -1.52761   4.086414   4.259981 H        1 UNL1     0.0317
     88 H         -0.353203   7.08265   7.313764 H        1 UNL1     0.0429
     89 H         1.061468   6.433597   6.480894 H        1 UNL1     0.0429
     90 H         0.14957   8.573032   4.831932 H        1 UNL1     0.0308
     91 H         -0.947161   10.08896   6.144375 H        1 UNL1     0.0233
     92 H         -0.765041   9.029262   7.56542 H        1 UNL1     0.0233
     93 H         0.464118   10.21707   7.18742 H        1 UNL1     0.0233
     94 H         2.381023   8.474681   4.85841 H        1 UNL1     0.0233
     95 H         2.2151   9.695184   6.13009 H        1 UNL1     0.0233
     96 H         2.482406   7.990962   6.563869 H        1 UNL1     0.0233
     97 H         -10.288419   6.559502   -0.70422 H        1 UNL1     0.0280
     98 H         -9.038221   7.361475   -1.61583 H        1 UNL1     0.0280
     99 H         -9.205892   5.583288   -1.714154 H        1 UNL1     0.0280
     100 H         -8.656012   8.981848   1.646244 H        1 UNL1     0.2922
     101 H         -4.928383   -0.679521   3.194233 H        1 UNL1     0.0236
     102 H         -5.149891   -0.150169   4.907938 H        1 UNL1     0.0236
     103 H         -3.694924   -0.942305   4.387276 H        1 UNL1     0.0236
     104 H         -1.625525   -1.007332   3.593988 H        1 UNL1     0.2098
     105 H         -0.509899   1.49281   0.722711 H        1 UNL1     0.0234
     106 H         0.568006   0.337185   1.555628 H        1 UNL1     0.0234
     107 H         0.0   0.0   0.0 H        1 UNL1     0.0234
     108 H         -3.518902   0.036699   -0.649123 H        1 UNL1     0.2098
     109 H         -0.494368   2.198282   -0.555325 H        1 UNL1     0.0234
     110 H         -1.355424   3.373524   -1.599447 H        1 UNL1     0.0234
     111 H         -2.235939   2.373239   -0.498099 H        1 UNL1     0.0234
     112 H         3.490527   0.716057   -2.148567 H        1 UNL1     0.0342
     113 H         3.120952   2.124641   -1.091428 H        1 UNL1     0.0342
     114 H         2.719845   0.486278   -0.569078 H        1 UNL1     0.0342
     115 H         -2.210554   -3.31798   -2.24566 H        1 UNL1     0.0234
     116 H         -3.117161   -1.919862   -2.832274 H        1 UNL1     0.0234
     117 H         -1.537688   -2.384163   -3.498109 H        1 UNL1     0.0234
     118 H         -4.079001   4.314504   -1.695472 H        1 UNL1     0.0309
     119 H         -5.410362   4.507341   -2.877992 H        1 UNL1     0.0309
     120 H         -5.173858   5.641729   -1.566739 H        1 UNL1     0.0309
     121 H         -2.13101   -0.946063   -4.225361 H        1 UNL1     0.0524
     122 H         -3.697621   -1.760257   -4.323718 H        1 UNL1     0.0524
     123 H         -3.504901   -0.132935   -5.02259 H        1 UNL1     0.0524
@<TRIPOS>BOND
     1     1     2    1
     2     1    42    1
     3     2     3    2
     4     3     4    1
     5     4     5    2
     6     5     7    1
     7     6    75    1
     8     6    76    1
     9     6    77    1
    10     7     9   am
    11     9    10    1
    12    10    11    2
    13    10    43    1
    14    11    14    1
    15    11    15    1
    16    12    13   ar
    17    12    27   ar
    18    12    43    1
    19    13    14    1
    20    13    30   ar
    21    14    17    2
    22    15    16    1
    23    16    17    1
    24    16    18    1
    25    16    22    1
    26    18    19    1
    27    19    20    1
    28    20    21    1
    29    21    22    1
    30    23    24    1
    31    23    88    1
    32    23    89    1
    33    24    25    1
    34    24    26    1
    35    24    90    1
    36    25    91    1
    37    25    92    1
    38    25    93    1
    39    26    94    1
    40    26    95    1
    41    26    96    1
    42    27    28   ar
    43    28    29   ar
    44    29    30   ar
    45    29    31    1
    46    30    33    1
    47    31    32    1
    48    32    33    1
    49    32    35    1
    50    34    97    1
    51    34    98    1
    52    34    99    1
    53    35    61    1
    54    36    37    1
    55    36    60    1
    56    37    38    1
    57    38    39    1
    58    39    40    1
    59    40    41    1
    60    41    42    1
    61    45   100    1
    62    47   101    1
    63    47   102    1
    64    47   103    1
    65    48   104    1
    66    49   105    1
    67    49   106    1
    68    49   107    1
    69    50   108    1
    70    51    59    1
    71    52   109    1
    72    52   110    1
    73    52   111    1
    74    53    54    1
    75    54    55    2
    76    54    56    1
    77    56   112    1
    78    56   113    1
    79    56   114    1
    80    57   115    1
    81    57   116    1
    82    57   117    1
    83    58   118    1
    84    58   119    1
    85    58   120    1
    86    59   121    1
    87    59   122    1
    88    59   123    1
    89    60    61    2
    90     1    47    1
    91     1    62    1
    92     2    63    1
    93     3    64    1
    94     4    65    1
    95     5     6    1
    96     7     8    2
    97     9    78    1
    98    15    79    1
    99    18    80    1
   100    18    81    1
   101    19    82    1
   102    19    83    1
   103    20    23    1
   104    21    84    1
   105    21    85    1
   106    22    86    1
   107    22    87    1
   108    27    45    1
   109    28    34    1
   110    32    58    1
   111    33    46    2
   112    36    51    1
   113    36    66    1
   114    37    52    1
   115    37    67    1
   116    38    53    1
   117    38    68    1
   118    42    48    1
   119    42    72    1
   120    43    44    2
   121    60    73    1
   122    61    74    1
   123    39    69    1
   124    39    57    1
   125    40    70    1
   126    40    50    1
   127    41    71    1
   128    41    49    1
