@<TRIPOS>MOLECULE
*****
 123 128 0 0 0
SMALL
GASTEIGER

@<TRIPOS>ATOM
     1 C         0.157064   3.71139   1.80234 C.3        1 UNL1     0.0009
     2 C         -0.518904   5.310852   1.152858 C.2        1 UNL1     -0.0787
     3 C         -0.324274   6.569254   0.463953 C.2        1 UNL1     -0.0649
     4 C         -1.498752   7.70483   0.019626 C.2        1 UNL1     -0.0542
     5 C         -1.794481   8.795773   -0.834462 C.2        1 UNL1     0.0115
     6 C         -1.179681   9.804218   -1.843611 C.3        1 UNL1     -0.0348
     7 C         -3.328447   9.210815   -1.061793 C.2        1 UNL1     0.2441
     8 O         -3.847466   10.169904   -0.507453 O.2        1 UNL1     -0.2702
     9 N         -3.961799   8.560213   -2.134981 N.am        1 UNL1     -0.2772
     10 C         -4.515396   7.371914   -1.716894 C.2        1 UNL1     0.1049
     11 C         -3.696755   6.337212   -1.658213 C.2        1 UNL1     0.0801
     12 C         -5.963691   6.376002   0.062976 C.ar        1 UNL1     0.0753
     13 C         -4.941205   5.388967   0.232954 C.ar        1 UNL1     0.0305
     14 C         -3.83515   5.262226   -0.713424 C.2        1 UNL1     0.0924
     15 N         -2.449754   6.193992   -2.138842 N.pl3        1 UNL1     -0.3170
     16 C         -2.065649   4.818788   -1.96127 C.3        1 UNL1     0.1275
     17 N         -2.86479   4.354303   -0.768227 N.2        1 UNL1     -0.2557
     18 C         -2.602274   4.041139   -3.159185 C.3        1 UNL1     0.0016
     19 C         -2.071994   4.68174   -4.431986 C.3        1 UNL1     0.0026
     20 N         -0.616278   4.653526   -4.398459 N.3        1 UNL1     -0.3018
     21 C         -0.007788   5.323959   -3.247534 C.3        1 UNL1     0.0026
     22 C         -0.550897   4.661575   -1.980185 C.3        1 UNL1     0.0016
     23 C         -0.016557   4.962294   -5.681284 C.3        1 UNL1     0.0012
     24 C         -0.65624   6.222188   -6.285626 C.3        1 UNL1     -0.0339
     25 C         -1.395002   5.904457   -7.596097 C.3        1 UNL1     -0.0615
     26 C         -1.576056   6.877525   -5.27012 C.3        1 UNL1     -0.0615
     27 C         -7.077277   6.412966   0.898845 C.ar        1 UNL1     0.1347
     28 C         -7.297055   5.494679   1.910031 C.ar        1 UNL1     0.0342
     29 C         -6.253459   4.562131   2.090095 C.ar        1 UNL1     0.1435
     30 C         -5.114978   4.535514   1.283638 C.ar        1 UNL1     0.0774
     31 O         -6.367874   3.535897   2.961163 O.3        1 UNL1     -0.4436
     32 C         -5.380958   2.585241   2.533235 C.3        1 UNL1     0.3143
     33 C         -4.360297   3.394954   1.759394 C.2        1 UNL1     0.2504
     34 C         -8.577542   5.318073   2.677667 C.3        1 UNL1     -0.0327
     35 O         -4.722107   2.097017   3.708311 O.2        1 UNL1     -0.4528
     36 C         -3.65014   -1.453653   2.901017 C.3        1 UNL1     0.0854
     37 C         -2.734366   -1.975518   1.727758 C.3        1 UNL1     0.0236
     38 C         -1.470745   -2.846501   2.192941 C.3        1 UNL1     0.1131
     39 C         -0.503525   -2.29004   3.314149 C.3        1 UNL1     0.0200
     40 C         -0.015167   -0.695202   3.293331 C.3        1 UNL1     0.0661
     41 C         0.627652   0.129802   1.957755 C.3        1 UNL1     0.0091
     42 C         0.497165   1.894424   1.473516 C.3        1 UNL1     0.0661
     43 C         -5.843366   7.303707   -1.089042 C.2        1 UNL1     0.2131
     44 O         -6.78707   7.902383   -1.572516 O.2        1 UNL1     -0.2851
     45 O         -8.003506   7.433686   0.694713 O.3        1 UNL1     -0.5056
     46 O         -3.183951   3.162423   1.592083 O.2        1 UNL1     -0.2836
     47 C         0.993679   3.961138   3.085961 C.3        1 UNL1     -0.0566
     48 O         1.947141   2.044986   1.201459 O.3        1 UNL1     -0.3909
     49 C         0.377207   -0.689457   0.711325 C.3        1 UNL1     -0.0577
     50 O         -0.952127   0.12461   3.962462 O.3        1 UNL1     -0.3910
     51 O         -3.15891   -1.663063   4.205728 O.3        1 UNL1     -0.3753
     52 C         -2.647125   -0.944737   0.555227 C.3        1 UNL1     -0.0564
     53 O         -0.826641   -3.614403   1.075898 O.3        1 UNL1     -0.4608
     54 C         -0.411572   -4.918653   1.143568 C.2        1 UNL1     0.3042
     55 O         0.721931   -5.35307   0.942841 O.2        1 UNL1     -0.2512
     56 C         -1.491735   -5.872242   1.568572 C.3        1 UNL1     0.0332
     57 C         -0.980463   -2.905274   4.711357 C.3        1 UNL1     -0.0567
     58 C         -6.096098   1.621212   1.558169 C.3        1 UNL1     0.0210
     59 C         -2.268397   -2.769722   4.340475 C.3        1 UNL1     0.0372
     60 C         -4.030273   -0.017502   2.810846 C.2        1 UNL1     -0.0208
     61 C         -4.04557   0.933038   3.746251 C.2        1 UNL1     0.0882
     62 H         -0.852705   3.441648   2.13448 H        1 UNL1     0.0365
     63 H         -1.547381   5.259755   1.516306 H        1 UNL1     0.0576
     64 H         0.632945   6.829392   0.006605 H        1 UNL1     0.0615
     65 H         -2.382763   7.400999   0.586806 H        1 UNL1     0.0622
     66 H         -4.585794   -2.020311   2.793797 H        1 UNL1     0.0645
     67 H         -3.353057   -2.738221   1.223711 H        1 UNL1     0.0362
     68 H         -1.99399   -3.697505   2.655034 H        1 UNL1     0.0741
     69 H         0.434756   -2.826038   3.261769 H        1 UNL1     0.0359
     70 H         0.847262   -0.750822   3.984839 H        1 UNL1     0.0600
     71 H         1.708375   -0.04938   2.12173 H        1 UNL1     0.0348
     72 H         0.249569   1.854674   2.544231 H        1 UNL1     0.0602
     73 H         -4.44406   0.174725   1.85216 H        1 UNL1     0.0628
     74 H         -3.590445   0.83512   4.732411 H        1 UNL1     0.1022
     75 H         -0.067709   9.704705   -1.869083 H        1 UNL1     0.0279
     76 H         -1.45078   9.671176   -2.888538 H        1 UNL1     0.0279
     77 H         -1.296478   10.850178   -1.524191 H        1 UNL1     0.0279
     78 H         -3.276468   8.34221   -2.85531 H        1 UNL1     0.1553
     79 H         -2.056968   6.780469   -2.852072 H        1 UNL1     0.1484
     80 H         -2.28665   2.994112   -3.076224 H        1 UNL1     0.0317
     81 H         -3.697539   4.038797   -3.165378 H        1 UNL1     0.0317
     82 H         -2.445209   5.708889   -4.556841 H        1 UNL1     0.0428
     83 H         -2.468201   4.112855   -5.273674 H        1 UNL1     0.0428
     84 H         1.080816   5.219666   -3.204233 H        1 UNL1     0.0428
     85 H         -0.170897   6.410243   -3.273975 H        1 UNL1     0.0428
     86 H         0.012133   5.083967   -1.168662 H        1 UNL1     0.0317
     87 H         -0.268316   3.601922   -1.960648 H        1 UNL1     0.0317
     88 H         1.052211   5.15552   -5.520996 H        1 UNL1     0.0429
     89 H         -0.089678   4.111412   -6.370796 H        1 UNL1     0.0429
     90 H         0.129028   6.957656   -6.496941 H        1 UNL1     0.0308
     91 H         -1.179585   6.652004   -8.365428 H        1 UNL1     0.0233
     92 H         -1.114507   4.916154   -7.967833 H        1 UNL1     0.0233
     93 H         -2.483998   5.885036   -7.46747 H        1 UNL1     0.0233
     94 H         -1.182096   6.737066   -4.257745 H        1 UNL1     0.0233
     95 H         -1.638414   7.952448   -5.461467 H        1 UNL1     0.0233
     96 H         -2.582932   6.452689   -5.31114 H        1 UNL1     0.0233
     97 H         -9.430844   5.179738   2.020424 H        1 UNL1     0.0280
     98 H         -8.55198   4.433387   3.327231 H        1 UNL1     0.0280
     99 H         -8.761128   6.209677   3.299304 H        1 UNL1     0.0280
     100 H         -8.07248   8.047537   1.404679 H        1 UNL1     0.2922
     101 H         1.415354   3.020226   3.438851 H        1 UNL1     0.0236
     102 H         0.436795   4.4781   3.866739 H        1 UNL1     0.0236
     103 H         1.86818   4.604336   2.891702 H        1 UNL1     0.0236
     104 H         2.115621   2.989189   1.014198 H        1 UNL1     0.2098
     105 H         1.267546   -1.149034   0.289546 H        1 UNL1     0.0234
     106 H         -0.420744   -1.426163   0.803328 H        1 UNL1     0.0234
     107 H         -0.0   0.0   0.0 H        1 UNL1     0.0234
     108 H         -1.751049   -0.415154   4.11785 H        1 UNL1     0.2098
     109 H         -1.768826   -0.28987   0.641549 H        1 UNL1     0.0234
     110 H         -2.65719   -1.415791   -0.433585 H        1 UNL1     0.0234
     111 H         -3.517073   -0.274738   0.539781 H        1 UNL1     0.0234
     112 H         -2.452565   -5.350506   1.612659 H        1 UNL1     0.0342
     113 H         -1.549339   -6.742673   0.916747 H        1 UNL1     0.0342
     114 H         -1.255605   -6.22921   2.580492 H        1 UNL1     0.0342
     115 H         -1.720196   -3.705938   4.573803 H        1 UNL1     0.0234
     116 H         -0.168259   -3.30944   5.318831 H        1 UNL1     0.0234
     117 H         -1.54982   -2.193775   5.333886 H        1 UNL1     0.0234
     118 H         -6.197158   0.605477   1.978974 H        1 UNL1     0.0309
     119 H         -7.082266   1.97931   1.246016 H        1 UNL1     0.0309
     120 H         -5.527279   1.457266   0.636392 H        1 UNL1     0.0309
     121 H         -1.266826   -2.369861   4.496432 H        1 UNL1     0.0524
     122 H         -2.51343   -3.400269   5.211341 H        1 UNL1     0.0524
     123 H         -2.291945   -3.382444   3.443752 H        1 UNL1     0.0524
@<TRIPOS>BOND
     1     1     2    1
     2     1    42    1
     3     2     3    2
     4     3     4    1
     5     4     5    2
     6     5     7    1
     7     6    75    1
     8     6    76    1
     9     6    77    1
    10     7     9   am
    11     9    10    1
    12    10    11    2
    13    10    43    1
    14    11    14    1
    15    11    15    1
    16    12    13   ar
    17    12    27   ar
    18    12    43    1
    19    13    14    1
    20    13    30   ar
    21    14    17    2
    22    15    16    1
    23    16    17    1
    24    16    18    1
    25    16    22    1
    26    18    19    1
    27    19    20    1
    28    20    21    1
    29    21    22    1
    30    23    24    1
    31    23    88    1
    32    23    89    1
    33    24    25    1
    34    24    26    1
    35    24    90    1
    36    25    91    1
    37    25    92    1
    38    25    93    1
    39    26    94    1
    40    26    95    1
    41    26    96    1
    42    27    28   ar
    43    28    29   ar
    44    29    30   ar
    45    29    31    1
    46    30    33    1
    47    31    32    1
    48    32    33    1
    49    32    35    1
    50    34    97    1
    51    34    98    1
    52    34    99    1
    53    35    61    1
    54    36    37    1
    55    36    60    1
    56    37    38    1
    57    38    39    1
    58    39    40    1
    59    40    41    1
    60    41    42    1
    61    45   100    1
    62    47   101    1
    63    47   102    1
    64    47   103    1
    65    48   104    1
    66    49   105    1
    67    49   106    1
    68    49   107    1
    69    50   108    1
    70    51    59    1
    71    52   109    1
    72    52   110    1
    73    52   111    1
    74    53    54    1
    75    54    55    2
    76    54    56    1
    77    56   112    1
    78    56   113    1
    79    56   114    1
    80    57   115    1
    81    57   116    1
    82    57   117    1
    83    58   118    1
    84    58   119    1
    85    58   120    1
    86    59   121    1
    87    59   122    1
    88    59   123    1
    89    60    61    2
    90     1    47    1
    91     1    62    1
    92     2    63    1
    93     3    64    1
    94     4    65    1
    95     5     6    1
    96     7     8    2
    97     9    78    1
    98    15    79    1
    99    18    80    1
   100    18    81    1
   101    19    82    1
   102    19    83    1
   103    20    23    1
   104    21    84    1
   105    21    85    1
   106    22    86    1
   107    22    87    1
   108    27    45    1
   109    28    34    1
   110    32    58    1
   111    33    46    2
   112    36    51    1
   113    36    66    1
   114    37    52    1
   115    37    67    1
   116    38    53    1
   117    38    68    1
   118    42    48    1
   119    42    72    1
   120    43    44    2
   121    60    73    1
   122    61    74    1
   123    39    69    1
   124    39    57    1
   125    40    70    1
   126    40    50    1
   127    41    71    1
   128    41    49    1
