@<TRIPOS>MOLECULE
*****
 123 128 0 0 0
SMALL
GASTEIGER

@<TRIPOS>ATOM
     1 C         -3.406097   4.050378   1.398148 C.3        1 UNL1     0.0009
     2 C         -3.538758   5.841838   1.856522 C.2        1 UNL1     -0.0787
     3 C         -3.728539   6.871897   2.856026 C.2        1 UNL1     -0.0649
     4 C         -3.620438   8.549469   2.654967 C.2        1 UNL1     -0.0542
     5 C         -3.438765   9.788824   3.316836 C.2        1 UNL1     0.0115
     6 C         -3.373576   10.4712   4.710908 C.3        1 UNL1     -0.0348
     7 C         -3.005416   11.072868   2.456354 C.2        1 UNL1     0.2441
     8 O         -3.792266   11.949921   2.127461 O.2        1 UNL1     -0.2702
     9 N         -1.617393   11.255421   2.329009 N.am        1 UNL1     -0.2772
     10 C         -1.140561   10.56635   1.237618 C.2        1 UNL1     0.1049
     11 C         -0.888654   9.283361   1.423909 C.2        1 UNL1     0.0801
     12 C         -1.560239   10.170067   -1.196343 C.ar        1 UNL1     0.0753
     13 C         -1.48458   8.771527   -0.901438 C.ar        1 UNL1     0.0305
     14 C         -1.015513   8.287179   0.394878 C.2        1 UNL1     0.0924
     15 N         -0.820977   8.572818   2.562801 N.pl3        1 UNL1     -0.3170
     16 C         -0.346117   7.255652   2.231383 C.3        1 UNL1     0.1275
     17 N         -0.789033   7.04225   0.804495 N.2        1 UNL1     -0.2557
     18 C         1.177816   7.319863   2.196652 C.3        1 UNL1     0.0016
     19 C         1.672936   7.84771   3.533747 C.3        1 UNL1     0.0026
     20 N         1.209956   6.956856   4.588762 N.3        1 UNL1     -0.3018
     21 C         -0.242097   6.782225   4.662332 C.3        1 UNL1     0.0026
     22 C         -0.717325   6.247003   3.310447 C.3        1 UNL1     0.0016
     23 C         1.868469   7.195416   5.857656 C.3        1 UNL1     0.0012
     24 C         2.399535   8.635899   5.92645 C.3        1 UNL1     -0.0339
     25 C         3.224262   8.991411   4.678454 C.3        1 UNL1     -0.0615
     26 C         1.248909   9.605931   6.131092 C.3        1 UNL1     -0.0615
     27 C         -1.89212   10.621892   -2.471422 C.ar        1 UNL1     0.1347
     28 C         -2.129577   9.773759   -3.53835 C.ar        1 UNL1     0.0342
     29 C         -2.097474   8.401145   -3.212676 C.ar        1 UNL1     0.1435
     30 C         -1.80198   7.934203   -1.931322 C.ar        1 UNL1     0.0774
     31 O         -2.199781   7.448329   -4.164874 O.3        1 UNL1     -0.4436
     32 C         -1.662062   6.265792   -3.553861 C.3        1 UNL1     0.3143
     33 C         -1.801903   6.492096   -2.062068 C.2        1 UNL1     0.2504
     34 C         -2.242037   10.18172   -4.980924 C.3        1 UNL1     -0.0327
     35 O         -2.530536   5.177999   -3.894025 O.2        1 UNL1     -0.4528
     36 C         -0.33347   2.08429   -3.993792 C.3        1 UNL1     0.0854
     37 C         0.583965   1.476963   -2.863752 C.3        1 UNL1     0.0236
     38 C         0.290621   -0.058929   -2.507763 C.3        1 UNL1     0.1131
     39 C         -1.188541   -0.523426   -2.19377 C.3        1 UNL1     0.0200
     40 C         -2.174615   0.400512   -1.215795 C.3        1 UNL1     0.0661
     41 C         -1.76341   1.018967   0.309339 C.3        1 UNL1     0.0091
     42 C         -2.283448   2.566806   1.145495 C.3        1 UNL1     0.0661
     43 C         -1.186144   11.123533   -0.122464 C.2        1 UNL1     0.2131
     44 O         -0.832376   12.269496   -0.33307 O.2        1 UNL1     -0.2851
     45 O         -1.988745   11.99861   -2.663124 O.3        1 UNL1     -0.5056
     46 O         -1.911171   5.667973   -1.181878 O.2        1 UNL1     -0.2836
     47 C         -4.808877   3.385501   1.409614 C.3        1 UNL1     -0.0566
     48 O         -2.5996   1.900194   2.431883 O.3        1 UNL1     -0.3909
     49 C         -0.267894   0.896192   0.49869 C.3        1 UNL1     -0.0577
     50 O         -2.8478   1.386979   -1.971724 O.3        1 UNL1     -0.3910
     51 O         -1.400697   1.27018   -4.424701 O.3        1 UNL1     -0.3753
     52 C         0.929467   2.53371   -1.764269 C.3        1 UNL1     -0.0564
     53 O         1.379388   -0.707634   -1.703962 O.3        1 UNL1     -0.4608
     54 C         1.517178   -2.05467   -1.493159 C.2        1 UNL1     0.3042
     55 O         1.080203   -2.96848   -2.191616 O.2        1 UNL1     -0.2512
     56 C         2.351217   -2.392943   -0.290386 C.3        1 UNL1     0.0332
     57 C         -1.811629   -1.098443   -3.549975 C.3        1 UNL1     -0.0567
     58 C         -0.158636   6.232047   -3.914554 C.3        1 UNL1     0.0210
     59 C         -2.055853   1.718609   -5.610259 C.3        1 UNL1     0.0372
     60 C         -0.910847   3.420742   -3.68445 C.2        1 UNL1     -0.0208
     61 C         -2.149245   3.88697   -3.851022 C.2        1 UNL1     0.0882
     62 H         -3.21021   4.349891   0.361504 H        1 UNL1     0.0365
     63 H         -3.478358   6.309064   0.871372 H        1 UNL1     0.0576
     64 H         -3.804485   6.631235   3.918768 H        1 UNL1     0.0615
     65 H         -3.63031   8.683056   1.569822 H        1 UNL1     0.0622
     66 H         0.343533   2.238422   -4.845823 H        1 UNL1     0.0645
     67 H         1.579451   1.406632   -3.335579 H        1 UNL1     0.0362
     68 H         0.543447   -0.523061   -3.473259 H        1 UNL1     0.0741
     69 H         -1.152459   -1.46868   -1.668793 H        1 UNL1     0.0359
     70 H         -2.956597   -0.344819   -0.974869 H        1 UNL1     0.0600
     71 H         -2.132131   0.198921   0.956275 H        1 UNL1     0.0348
     72 H         -3.02786   2.383138   0.357186 H        1 UNL1     0.0602
     73 H         -0.130734   4.079178   -3.392675 H        1 UNL1     0.0628
     74 H         -3.014121   3.267768   -4.091474 H        1 UNL1     0.1022
     75 H         -3.721626   9.769978   5.507265 H        1 UNL1     0.0279
     76 H         -2.385771   10.756735   5.065562 H        1 UNL1     0.0279
     77 H         -4.095802   11.294053   4.815803 H        1 UNL1     0.0279
     78 H         -1.146953   10.887298   3.153175 H        1 UNL1     0.1553
     79 H         -0.694592   8.984229   3.469278 H        1 UNL1     0.1484
     80 H         1.573263   6.317957   1.990317 H        1 UNL1     0.0317
     81 H         1.523759   7.966969   1.383493 H        1 UNL1     0.0317
     82 H         1.338926   8.880338   3.71272 H        1 UNL1     0.0428
     83 H         2.761637   7.887133   3.486575 H        1 UNL1     0.0428
     84 H         -0.558274   6.047981   5.409814 H        1 UNL1     0.0428
     85 H         -0.75028   7.707887   4.966003 H        1 UNL1     0.0428
     86 H         -1.755889   6.006624   3.443077 H        1 UNL1     0.0317
     87 H         -0.254988   5.272833   3.109615 H        1 UNL1     0.0317
     88 H         1.129243   7.056894   6.657438 H        1 UNL1     0.0429
     89 H         2.671902   6.468386   6.032861 H        1 UNL1     0.0429
     90 H         3.040349   8.740657   6.809964 H        1 UNL1     0.0308
     91 H         3.037305   8.285398   3.86378 H        1 UNL1     0.0233
     92 H         2.991721   10.002809   4.336976 H        1 UNL1     0.0233
     93 H         4.303579   8.974751   4.872446 H        1 UNL1     0.0233
     94 H         1.633802   10.605426   6.360665 H        1 UNL1     0.0233
     95 H         0.652349   9.676113   5.217225 H        1 UNL1     0.0233
     96 H         0.600454   9.288278   6.952415 H        1 UNL1     0.0233
     97 H         -1.569354   10.99786   -5.227183 H        1 UNL1     0.0280
     98 H         -1.983109   9.362292   -5.664115 H        1 UNL1     0.0280
     99 H         -3.273392   10.508062   -5.192828 H        1 UNL1     0.0280
     100 H         -1.26278   12.38173   -3.123361 H        1 UNL1     0.2922
     101 H         -4.719349   2.343439   1.715793 H        1 UNL1     0.0236
     102 H         -5.340412   3.489809   0.464324 H        1 UNL1     0.0236
     103 H         -5.476993   3.841095   2.159446 H        1 UNL1     0.0236
     104 H         -3.568076   1.941925   2.555509 H        1 UNL1     0.2098
     105 H         0.308449   1.706496   0.059318 H        1 UNL1     0.0234
     106 H         0.048131   0.722276   1.527188 H        1 UNL1     0.0234
     107 H         0.0   0.0   0.0 H        1 UNL1     0.0234
     108 H         -3.774393   1.406273   -1.663794 H        1 UNL1     0.2098
     109 H         1.39689   3.43469   -2.185532 H        1 UNL1     0.0234
     110 H         0.064982   2.819876   -1.155567 H        1 UNL1     0.0234
     111 H         1.649345   2.138601   -1.035153 H        1 UNL1     0.0234
     112 H         2.078672   -3.384106   0.084661 H        1 UNL1     0.0342
     113 H         3.417811   -2.335042   -0.502203 H        1 UNL1     0.0342
     114 H         2.128312   -1.661363   0.498455 H        1 UNL1     0.0342
     115 H         -1.222661   -1.936818   -3.946751 H        1 UNL1     0.0234
     116 H         -2.844595   -1.438931   -3.454589 H        1 UNL1     0.0234
     117 H         -1.763951   -0.387023   -4.392323 H        1 UNL1     0.0234
     118 H         0.023102   5.746097   -4.889146 H        1 UNL1     0.0309
     119 H         0.30501   7.223627   -3.916781 H        1 UNL1     0.0309
     120 H         0.427639   5.624741   -3.216294 H        1 UNL1     0.0309
     121 H         -2.57355   2.646813   -5.369875 H        1 UNL1     0.0524
     122 H         -1.344674   1.936397   -6.424402 H        1 UNL1     0.0524
     123 H         -2.765922   0.971275   -5.952878 H        1 UNL1     0.0524
@<TRIPOS>BOND
     1     1     2    1
     2     1    42    1
     3     2     3    2
     4     3     4    1
     5     4     5    2
     6     5     7    1
     7     6    75    1
     8     6    76    1
     9     6    77    1
    10     7     9   am
    11     9    10    1
    12    10    11    2
    13    10    43    1
    14    11    14    1
    15    11    15    1
    16    12    13   ar
    17    12    27   ar
    18    12    43    1
    19    13    14    1
    20    13    30   ar
    21    14    17    2
    22    15    16    1
    23    16    17    1
    24    16    18    1
    25    16    22    1
    26    18    19    1
    27    19    20    1
    28    20    21    1
    29    21    22    1
    30    23    24    1
    31    23    88    1
    32    23    89    1
    33    24    25    1
    34    24    26    1
    35    24    90    1
    36    25    91    1
    37    25    92    1
    38    25    93    1
    39    26    94    1
    40    26    95    1
    41    26    96    1
    42    27    28   ar
    43    28    29   ar
    44    29    30   ar
    45    29    31    1
    46    30    33    1
    47    31    32    1
    48    32    33    1
    49    32    35    1
    50    34    97    1
    51    34    98    1
    52    34    99    1
    53    35    61    1
    54    36    37    1
    55    36    60    1
    56    37    38    1
    57    38    39    1
    58    39    40    1
    59    40    41    1
    60    41    42    1
    61    45   100    1
    62    47   101    1
    63    47   102    1
    64    47   103    1
    65    48   104    1
    66    49   105    1
    67    49   106    1
    68    49   107    1
    69    50   108    1
    70    51    59    1
    71    52   109    1
    72    52   110    1
    73    52   111    1
    74    53    54    1
    75    54    55    2
    76    54    56    1
    77    56   112    1
    78    56   113    1
    79    56   114    1
    80    57   115    1
    81    57   116    1
    82    57   117    1
    83    58   118    1
    84    58   119    1
    85    58   120    1
    86    59   121    1
    87    59   122    1
    88    59   123    1
    89    60    61    2
    90     1    47    1
    91     1    62    1
    92     2    63    1
    93     3    64    1
    94     4    65    1
    95     5     6    1
    96     7     8    2
    97     9    78    1
    98    15    79    1
    99    18    80    1
   100    18    81    1
   101    19    82    1
   102    19    83    1
   103    20    23    1
   104    21    84    1
   105    21    85    1
   106    22    86    1
   107    22    87    1
   108    27    45    1
   109    28    34    1
   110    32    58    1
   111    33    46    2
   112    36    51    1
   113    36    66    1
   114    37    52    1
   115    37    67    1
   116    38    53    1
   117    38    68    1
   118    42    48    1
   119    42    72    1
   120    43    44    2
   121    60    73    1
   122    61    74    1
   123    39    69    1
   124    39    57    1
   125    40    70    1
   126    40    50    1
   127    41    71    1
   128    41    49    1
