@<TRIPOS>MOLECULE
*****
 123 128 0 0 0
SMALL
GASTEIGER

@<TRIPOS>ATOM
     1 C         1.439962   -1.132306   -3.835255 C.3        1 UNL1     0.0009
     2 C         0.574853   -2.161151   -5.112009 C.2        1 UNL1     -0.0787
     3 C         0.419279   -3.413787   -5.821056 C.2        1 UNL1     -0.0649
     4 C         -0.777277   -3.832699   -6.943163 C.2        1 UNL1     -0.0542
     5 C         -1.442056   -4.906457   -7.585184 C.2        1 UNL1     0.0115
     6 C         -1.415736   -6.442401   -7.816497 C.3        1 UNL1     -0.0348
     7 C         -2.853641   -4.631099   -8.298341 C.2        1 UNL1     0.2441
     8 O         -2.974575   -4.508513   -9.509486 O.2        1 UNL1     -0.2702
     9 N         -3.975646   -4.799747   -7.468392 N.am        1 UNL1     -0.2772
     10 C         -4.265294   -3.627623   -6.808429 C.2        1 UNL1     0.1049
     11 C         -3.570498   -3.390843   -5.710515 C.2        1 UNL1     0.0801
     12 C         -4.596736   -1.175274   -7.17376 C.ar        1 UNL1     0.0753
     13 C         -3.668613   -0.97007   -6.103672 C.ar        1 UNL1     0.0305
     14 C         -3.227172   -2.072103   -5.251789 C.2        1 UNL1     0.0924
     15 N         -2.76555   -4.204129   -5.005425 N.pl3        1 UNL1     -0.3170
     16 C         -2.389054   -3.51327   -3.80076 C.3        1 UNL1     0.1275
     17 N         -2.458707   -2.050693   -4.166465 N.2        1 UNL1     -0.2557
     18 C         -3.498108   -3.747741   -2.779621 C.3        1 UNL1     0.0016
     19 C         -3.693515   -5.245863   -2.609222 C.3        1 UNL1     0.0026
     20 N         -2.437859   -5.833641   -2.163269 N.3        1 UNL1     -0.3018
     21 C         -1.295653   -5.607879   -3.051393 C.3        1 UNL1     0.0026
     22 C         -1.11471   -4.096712   -3.20478 C.3        1 UNL1     0.0016
     23 C         -2.589907   -7.19373   -1.686109 C.3        1 UNL1     0.0012
     24 C         -3.350313   -7.214215   -0.350774 C.3        1 UNL1     -0.0339
     25 C         -2.850249   -8.344455   0.563857 C.3        1 UNL1     -0.0615
     26 C         -3.247744   -5.859285   0.32777 C.3        1 UNL1     -0.0615
     27 C         -5.105335   -0.103428   -7.903548 C.ar        1 UNL1     0.1347
     28 C         -4.791528   1.216182   -7.63114 C.ar        1 UNL1     0.0342
     29 C         -3.838431   1.390888   -6.605349 C.ar        1 UNL1     0.1435
     30 C         -3.292904   0.324369   -5.889698 C.ar        1 UNL1     0.0774
     31 O         -3.511788   2.619604   -6.148658 O.3        1 UNL1     -0.4436
     32 C         -2.926111   2.383454   -4.859438 C.3        1 UNL1     0.3143
     33 C         -2.437331   0.949783   -4.902977 C.2        1 UNL1     0.2504
     34 C         -5.484686   2.422832   -8.200024 C.3        1 UNL1     -0.0327
     35 O         -1.765013   3.217233   -4.759855 O.2        1 UNL1     -0.4528
     36 C         -1.38794   4.040294   -1.0736 C.3        1 UNL1     0.0854
     37 C         -1.239832   3.062965   0.15539 C.3        1 UNL1     0.0236
     38 C         0.051888   3.31896   1.070634 C.3        1 UNL1     0.1131
     39 C         1.480238   3.42862   0.39977 C.3        1 UNL1     0.0200
     40 C         1.935394   2.360521   -0.797909 C.3        1 UNL1     0.0661
     41 C         1.808704   0.670573   -0.722855 C.3        1 UNL1     0.0091
     42 C         1.499674   -0.559641   -2.048177 C.3        1 UNL1     0.0661
     43 C         -5.06869   -2.560049   -7.422592 C.2        1 UNL1     0.2131
     44 O         -6.106318   -2.823424   -8.00285 O.2        1 UNL1     -0.2851
     45 O         -5.968363   -0.392888   -8.958457 O.3        1 UNL1     -0.5056
     46 O         -1.531154   0.443358   -4.279895 O.2        1 UNL1     -0.2836
     47 C         2.832567   -0.685525   -4.355852 C.3        1 UNL1     -0.0566
     48 O         2.595961   -1.462966   -1.622414 O.3        1 UNL1     -0.3909
     49 C         0.916483   0.299282   0.440579 C.3        1 UNL1     -0.0577
     50 O         1.514497   2.820743   -2.06628 O.3        1 UNL1     -0.3910
     51 O         -0.29276   4.893863   -1.317387 O.3        1 UNL1     -0.3753
     52 C         -1.747436   1.622988   -0.181883 C.3        1 UNL1     -0.0564
     53 O         -0.009547   2.629781   2.402393 O.3        1 UNL1     -0.4608
     54 C         0.859516   2.831038   3.44266 C.2        1 UNL1     0.3042
     55 O         1.798726   2.111853   3.781032 O.2        1 UNL1     -0.2512
     56 C         0.624566   4.117271   4.182335 C.3        1 UNL1     0.0332
     57 C         1.78704   4.981384   0.169609 C.3        1 UNL1     -0.0567
     58 C         -4.076214   2.487401   -3.830853 C.3        1 UNL1     0.0210
     59 C         -0.427264   5.728014   -2.467154 C.3        1 UNL1     0.0372
     60 C         -1.713328   3.379476   -2.366892 C.2        1 UNL1     -0.0208
     61 C         -1.206118   3.568354   -3.585829 C.2        1 UNL1     0.0882
     62 H         0.746059   -0.311734   -4.054051 H        1 UNL1     0.0365
     63 H         -0.111655   -1.425109   -5.535588 H        1 UNL1     0.0576
     64 H         1.00254   -4.298253   -5.555286 H        1 UNL1     0.0615
     65 H         -1.242055   -2.876335   -7.197784 H        1 UNL1     0.0622
     66 H         -2.258387   4.664313   -0.826682 H        1 UNL1     0.0645
     67 H         -2.054656   3.363633   0.836728 H        1 UNL1     0.0362
     68 H         -0.178205   4.332032   1.434317 H        1 UNL1     0.0741
     69 H         2.234429   3.269161   1.158833 H        1 UNL1     0.0359
     70 H         3.030031   2.524262   -0.793513 H        1 UNL1     0.0600
     71 H         2.808786   0.419555   -0.318152 H        1 UNL1     0.0348
     72 H         1.848772   0.351434   -2.555512 H        1 UNL1     0.0602
     73 H         -2.56181   2.754789   -2.236153 H        1 UNL1     0.0628
     74 H         -0.305074   4.145515   -3.796168 H        1 UNL1     0.1022
     75 H         -0.388333   -6.77922   -8.095836 H        1 UNL1     0.0279
     76 H         -1.640719   -7.066717   -6.954707 H        1 UNL1     0.0279
     77 H         -1.992517   -6.749152   -8.701329 H        1 UNL1     0.0279
     78 H         -3.776717   -5.506908   -6.763814 H        1 UNL1     0.1553
     79 H         -2.786458   -5.205005   -5.074297 H        1 UNL1     0.1484
     80 H         -3.219102   -3.269955   -1.832709 H        1 UNL1     0.0317
     81 H         -4.433623   -3.279127   -3.103449 H        1 UNL1     0.0317
     82 H         -4.04412   -5.718987   -3.538277 H        1 UNL1     0.0428
     83 H         -4.489786   -5.390475   -1.878408 H        1 UNL1     0.0428
     84 H         -0.349733   -5.990144   -2.65526 H        1 UNL1     0.0428
     85 H         -1.413992   -6.130763   -4.01051 H        1 UNL1     0.0428
     86 H         -0.196893   -3.968665   -3.748106 H        1 UNL1     0.0317
     87 H         -0.897463   -3.644423   -2.229416 H        1 UNL1     0.0317
     88 H         -3.173275   -7.75313   -2.429108 H        1 UNL1     0.0429
     89 H         -1.617968   -7.695728   -1.596065 H        1 UNL1     0.0429
     90 H         -4.417567   -7.370629   -0.547545 H        1 UNL1     0.0308
     91 H         -1.757051   -8.37559   0.596292 H        1 UNL1     0.0233
     92 H         -3.235732   -8.21947   1.578445 H        1 UNL1     0.0233
     93 H         -3.186839   -9.332915   0.228463 H        1 UNL1     0.0233
     94 H         -3.429743   -5.96067   1.403146 H        1 UNL1     0.0233
     95 H         -2.242974   -5.449083   0.193111 H        1 UNL1     0.0233
     96 H         -3.975301   -5.152335   -0.080706 H        1 UNL1     0.0233
     97 H         -6.191349   2.855461   -7.498105 H        1 UNL1     0.0280
     98 H         -4.77913   3.226022   -8.449689 H        1 UNL1     0.0280
     99 H         -6.034296   2.137036   -9.111805 H        1 UNL1     0.0280
     100 H         -5.657012   -1.05698   -9.548088 H        1 UNL1     0.2922
     101 H         2.797679   0.364888   -4.644072 H        1 UNL1     0.0236
     102 H         3.213306   -1.31722   -5.157713 H        1 UNL1     0.0236
     103 H         3.603965   -0.73442   -3.569247 H        1 UNL1     0.0236
     104 H         2.716578   -2.131772   -2.32464 H        1 UNL1     0.2098
     105 H         1.283172   -0.529353   1.041174 H        1 UNL1     0.0234
     106 H         0.632983   1.133994   1.081524 H        1 UNL1     0.0234
     107 H         -0.0   0.0   0.0 H        1 UNL1     0.0234
     108 H         1.338095   3.77774   -1.983773 H        1 UNL1     0.2098
     109 H         -1.166837   0.845719   0.334323 H        1 UNL1     0.0234
     110 H         -2.81365   1.482762   0.026127 H        1 UNL1     0.0234
     111 H         -1.653881   1.401501   -1.253395 H        1 UNL1     0.0234
     112 H         1.362029   4.225976   4.983382 H        1 UNL1     0.0342
     113 H         0.639042   4.980153   3.518205 H        1 UNL1     0.0342
     114 H         -0.370822   4.070049   4.645084 H        1 UNL1     0.0342
     115 H         2.838084   5.154468   -0.099719 H        1 UNL1     0.0234
     116 H         1.169616   5.446359   -0.601517 H        1 UNL1     0.0234
     117 H         1.699612   5.587847   1.087487 H        1 UNL1     0.0234
     118 H         -4.162233   3.502972   -3.406327 H        1 UNL1     0.0309
     119 H         -5.046256   2.186553   -4.239157 H        1 UNL1     0.0309
     120 H         -3.909982   1.858458   -2.949431 H        1 UNL1     0.0309
     121 H         -0.846875   6.678196   -2.137855 H        1 UNL1     0.0524
     122 H         0.543371   5.941553   -2.944967 H        1 UNL1     0.0524
     123 H         -1.083709   5.260777   -3.195759 H        1 UNL1     0.0524
@<TRIPOS>BOND
     1     1     2    1
     2     1    42    1
     3     2     3    2
     4     3     4    1
     5     4     5    2
     6     5     7    1
     7     6    75    1
     8     6    76    1
     9     6    77    1
    10     7     9   am
    11     9    10    1
    12    10    11    2
    13    10    43    1
    14    11    14    1
    15    11    15    1
    16    12    13   ar
    17    12    27   ar
    18    12    43    1
    19    13    14    1
    20    13    30   ar
    21    14    17    2
    22    15    16    1
    23    16    17    1
    24    16    18    1
    25    16    22    1
    26    18    19    1
    27    19    20    1
    28    20    21    1
    29    21    22    1
    30    23    24    1
    31    23    88    1
    32    23    89    1
    33    24    25    1
    34    24    26    1
    35    24    90    1
    36    25    91    1
    37    25    92    1
    38    25    93    1
    39    26    94    1
    40    26    95    1
    41    26    96    1
    42    27    28   ar
    43    28    29   ar
    44    29    30   ar
    45    29    31    1
    46    30    33    1
    47    31    32    1
    48    32    33    1
    49    32    35    1
    50    34    97    1
    51    34    98    1
    52    34    99    1
    53    35    61    1
    54    36    37    1
    55    36    60    1
    56    37    38    1
    57    38    39    1
    58    39    40    1
    59    40    41    1
    60    41    42    1
    61    45   100    1
    62    47   101    1
    63    47   102    1
    64    47   103    1
    65    48   104    1
    66    49   105    1
    67    49   106    1
    68    49   107    1
    69    50   108    1
    70    51    59    1
    71    52   109    1
    72    52   110    1
    73    52   111    1
    74    53    54    1
    75    54    55    2
    76    54    56    1
    77    56   112    1
    78    56   113    1
    79    56   114    1
    80    57   115    1
    81    57   116    1
    82    57   117    1
    83    58   118    1
    84    58   119    1
    85    58   120    1
    86    59   121    1
    87    59   122    1
    88    59   123    1
    89    60    61    2
    90     1    47    1
    91     1    62    1
    92     2    63    1
    93     3    64    1
    94     4    65    1
    95     5     6    1
    96     7     8    2
    97     9    78    1
    98    15    79    1
    99    18    80    1
   100    18    81    1
   101    19    82    1
   102    19    83    1
   103    20    23    1
   104    21    84    1
   105    21    85    1
   106    22    86    1
   107    22    87    1
   108    27    45    1
   109    28    34    1
   110    32    58    1
   111    33    46    2
   112    36    51    1
   113    36    66    1
   114    37    52    1
   115    37    67    1
   116    38    53    1
   117    38    68    1
   118    42    48    1
   119    42    72    1
   120    43    44    2
   121    60    73    1
   122    61    74    1
   123    39    69    1
   124    39    57    1
   125    40    70    1
   126    40    50    1
   127    41    71    1
   128    41    49    1
