@<TRIPOS>MOLECULE
*****
 123 128 0 0 0
SMALL
GASTEIGER

@<TRIPOS>ATOM
     1 C         -2.788946   2.000408   2.405509 C.3        1 UNL1     0.0009
     2 C         -4.255121   2.987134   1.845385 C.2        1 UNL1     -0.0787
     3 C         -4.889217   4.265175   1.599255 C.2        1 UNL1     -0.0649
     4 C         -6.395534   4.558919   0.884357 C.2        1 UNL1     -0.0542
     5 C         -7.201785   5.522293   0.229416 C.2        1 UNL1     0.0115
     6 C         -7.311564   7.027231   -0.139954 C.3        1 UNL1     -0.0348
     7 C         -8.473825   5.026184   -0.614847 C.2        1 UNL1     0.2441
     8 O         -9.621045   5.103918   -0.197271 O.2        1 UNL1     -0.2702
     9 N         -8.208859   4.739016   -1.96521 N.am        1 UNL1     -0.2772
     10 C         -7.808652   3.430318   -2.108273 C.2        1 UNL1     0.1049
     11 C         -6.532833   3.182815   -1.87322 C.2        1 UNL1     0.0801
     12 C         -8.419383   1.088746   -1.474727 C.ar        1 UNL1     0.0753
     13 C         -7.064923   0.937157   -1.037614 C.ar        1 UNL1     0.0305
     14 C         -6.045274   1.937678   -1.344734 C.2        1 UNL1     0.0924
     15 N         -5.502569   4.031878   -1.717731 N.pl3        1 UNL1     -0.3170
     16 C         -4.295389   3.251376   -1.656172 C.3        1 UNL1     0.1275
     17 N         -4.736482   1.915747   -1.10913 N.2        1 UNL1     -0.2557
     18 C         -3.849391   2.994359   -3.092392 C.3        1 UNL1     0.0016
     19 C         -3.697373   4.330911   -3.800989 C.3        1 UNL1     0.0026
     20 N         -2.715749   5.132059   -3.082932 N.3        1 UNL1     -0.3018
     21 C         -3.027347   5.381216   -1.673962 C.3        1 UNL1     0.0026
     22 C         -3.171138   4.025369   -0.980493 C.3        1 UNL1     0.0016
     23 C         -2.277119   6.292066   -3.833019 C.3        1 UNL1     0.0012
     24 C         -1.904877   7.439759   -2.881183 C.3        1 UNL1     -0.0339
     25 C         -2.244743   8.809357   -3.491714 C.3        1 UNL1     -0.0615
     26 C         -2.584236   7.242767   -1.537142 C.3        1 UNL1     -0.0615
     27 C         -9.357015   0.076592   -1.283652 C.ar        1 UNL1     0.1347
     28 C         -9.049692   -1.142391   -0.705999 C.ar        1 UNL1     0.0342
     29 C         -7.72239   -1.250335   -0.239328 C.ar        1 UNL1     0.1435
     30 C         -6.781632   -0.230971   -0.391286 C.ar        1 UNL1     0.0774
     31 O         -7.238873   -2.41416   0.24722 O.3        1 UNL1     -0.4436
     32 C         -5.812291   -2.277693   0.16289 C.3        1 UNL1     0.3143
     33 C         -5.557347   -0.784031   0.149101 C.2        1 UNL1     0.2504
     34 C         -9.93099   -2.3603   -0.69552 C.3        1 UNL1     -0.0327
     35 O         -5.262961   -2.783405   1.385896 O.2        1 UNL1     -0.4528
     36 C         -1.834658   -4.150803   0.499864 C.3        1 UNL1     0.0854
     37 C         -0.611452   -3.41506   -0.170935 C.3        1 UNL1     0.0236
     38 C         0.759823   -3.491166   0.657048 C.3        1 UNL1     0.1131
     39 C         0.77475   -3.097863   2.189158 C.3        1 UNL1     0.0200
     40 C         -0.041901   -1.7445   2.722006 C.3        1 UNL1     0.0661
     41 C         0.065295   -0.190571   2.050126 C.3        1 UNL1     0.0091
     42 C         -1.190424   1.140912   1.924723 C.3        1 UNL1     0.0661
     43 C         -8.770902   2.323848   -2.218513 C.2        1 UNL1     0.2131
     44 O         -9.730051   2.410842   -2.963631 O.2        1 UNL1     -0.2851
     45 O         -10.664689   0.322142   -1.697334 O.3        1 UNL1     -0.5056
     46 O         -4.573803   -0.184014   0.521222 O.2        1 UNL1     -0.2836
     47 C         -2.673664   2.037068   3.9532 C.3        1 UNL1     -0.0566
     48 O         -0.278739   2.203198   2.414105 O.3        1 UNL1     -0.3909
     49 C         0.741415   -0.287932   0.700728 C.3        1 UNL1     -0.0577
     50 O         -1.390445   -2.05416   3.010564 O.3        1 UNL1     -0.3910
     51 O         -1.62354   -4.628548   1.809299 O.3        1 UNL1     -0.3753
     52 C         -1.054841   -2.120499   -0.92755 C.3        1 UNL1     -0.0564
     53 O         1.967627   -3.10214   -0.144323 O.3        1 UNL1     -0.4608
     54 C         3.042706   -2.396659   0.329418 C.2        1 UNL1     0.3042
     55 O         3.293488   -1.205918   0.14753 O.2        1 UNL1     -0.2512
     56 C         3.953259   -3.206179   1.208215 C.3        1 UNL1     0.0332
     57 C         0.614619   -4.446018   3.034742 C.3        1 UNL1     -0.0567
     58 C         -5.396569   -2.867386   -1.204943 C.3        1 UNL1     0.0210
     59 C         -1.508762   -6.046544   1.918756 C.3        1 UNL1     0.0372
     60 C         -3.1008   -3.368946   0.527134 C.2        1 UNL1     -0.0208
     61 C         -3.984555   -3.188817   1.509619 C.2        1 UNL1     0.0882
     62 H         -3.334486   1.082894   2.153982 H        1 UNL1     0.0365
     63 H         -4.976558   2.189734   1.65525 H        1 UNL1     0.0576
     64 H         -4.346198   5.205634   1.716626 H        1 UNL1     0.0615
     65 H         -6.880869   3.579162   0.887235 H        1 UNL1     0.0622
     66 H         -2.028019   -5.014807   -0.151408 H        1 UNL1     0.0645
     67 H         -0.372254   -4.03909   -1.049531 H        1 UNL1     0.0362
     68 H         0.928938   -4.578529   0.633288 H        1 UNL1     0.0741
     69 H         1.794527   -2.891459   2.485568 H        1 UNL1     0.0359
     70 H         0.430653   -1.615084   3.71448 H        1 UNL1     0.0600
     71 H         0.879366   0.232611   2.670741 H        1 UNL1     0.0348
     72 H         -1.544866   0.463248   2.71495 H        1 UNL1     0.0602
     73 H         -3.318622   -3.022679   -0.452611 H        1 UNL1     0.0628
     74 H         -3.812591   -3.461545   2.551389 H        1 UNL1     0.1022
     75 H         -7.794808   7.15144   -1.138994 H        1 UNL1     0.0279
     76 H         -7.940425   7.639762   0.502236 H        1 UNL1     0.0279
     77 H         -6.331432   7.495104   -0.313553 H        1 UNL1     0.0279
     78 H         -7.449562   5.329661   -2.297901 H        1 UNL1     0.1553
     79 H         -5.517213   4.987394   -2.023848 H        1 UNL1     0.1484
     80 H         -2.904223   2.438259   -3.079161 H        1 UNL1     0.0317
     81 H         -4.574903   2.366825   -3.621056 H        1 UNL1     0.0317
     82 H         -4.658023   4.860607   -3.881526 H        1 UNL1     0.0428
     83 H         -3.38059   4.124333   -4.823742 H        1 UNL1     0.0428
     84 H         -2.237227   5.916207   -1.137952 H        1 UNL1     0.0428
     85 H         -3.910804   6.024192   -1.558193 H        1 UNL1     0.0428
     86 H         -3.265579   4.244435   0.066922 H        1 UNL1     0.0317
     87 H         -2.225944   3.47203   -1.039831 H        1 UNL1     0.0317
     88 H         -1.384461   6.010317   -4.406669 H        1 UNL1     0.0429
     89 H         -3.038068   6.609528   -4.557553 H        1 UNL1     0.0429
     90 H         -0.827561   7.404664   -2.680254 H        1 UNL1     0.0308
     91 H         -2.323186   8.750621   -4.581439 H        1 UNL1     0.0233
     92 H         -3.183833   9.191454   -3.084626 H        1 UNL1     0.0233
     93 H         -1.483794   9.56679   -3.267911 H        1 UNL1     0.0233
     94 H         -3.636873   7.539372   -1.598924 H        1 UNL1     0.0233
     95 H         -2.547461   6.187922   -1.250939 H        1 UNL1     0.0233
     96 H         -2.102917   7.837516   -0.75575 H        1 UNL1     0.0233
     97 H         -9.4531   -3.21313   -1.168313 H        1 UNL1     0.0280
     98 H         -10.17979   -2.682317   0.324118 H        1 UNL1     0.0280
     99 H         -10.866123   -2.143828   -1.237518 H        1 UNL1     0.0280
     100 H         -11.020689   1.142359   -1.403854 H        1 UNL1     0.2922
     101 H         -2.879553   1.047542   4.36076 H        1 UNL1     0.0236
     102 H         -3.295448   2.805536   4.411266 H        1 UNL1     0.0236
     103 H         -1.648483   2.26935   4.286731 H        1 UNL1     0.0236
     104 H         0.612867   1.811771   2.49654 H        1 UNL1     0.2098
     105 H         1.592894   0.376337   0.576063 H        1 UNL1     0.0234
     106 H         1.004347   -1.300558   0.395143 H        1 UNL1     0.0234
     107 H         0.0   0.0   -0.0 H        1 UNL1     0.0234
     108 H         -1.812863   -1.235812   3.335583 H        1 UNL1     0.2098
     109 H         -1.602503   -2.346589   -1.85311 H        1 UNL1     0.0234
     110 H         -1.649092   -1.441356   -0.306764 H        1 UNL1     0.0234
     111 H         -0.191464   -1.514743   -1.233469 H        1 UNL1     0.0234
     112 H         4.045397   -2.728916   2.18856 H        1 UNL1     0.0342
     113 H         3.617806   -4.237585   1.305768 H        1 UNL1     0.0342
     114 H         4.950169   -3.222627   0.746627 H        1 UNL1     0.0342
     115 H         1.173966   -4.404404   3.97951 H        1 UNL1     0.0234
     116 H         -0.419799   -4.698258   3.27641 H        1 UNL1     0.0234
     117 H         1.075799   -5.325107   2.552604 H        1 UNL1     0.0234
     118 H         -4.837911   -3.813454   -1.096027 H        1 UNL1     0.0309
     119 H         -6.243891   -3.027392   -1.879218 H        1 UNL1     0.0309
     120 H         -4.696371   -2.221443   -1.745856 H        1 UNL1     0.0309
     121 H         -2.513621   -6.450303   2.039562 H        1 UNL1     0.0524
     122 H         -1.074522   -6.502261   1.013331 H        1 UNL1     0.0524
     123 H         -0.893946   -6.30887   2.775073 H        1 UNL1     0.0524
@<TRIPOS>BOND
     1     1     2    1
     2     1    42    1
     3     2     3    2
     4     3     4    1
     5     4     5    2
     6     5     7    1
     7     6    75    1
     8     6    76    1
     9     6    77    1
    10     7     9   am
    11     9    10    1
    12    10    11    2
    13    10    43    1
    14    11    14    1
    15    11    15    1
    16    12    13   ar
    17    12    27   ar
    18    12    43    1
    19    13    14    1
    20    13    30   ar
    21    14    17    2
    22    15    16    1
    23    16    17    1
    24    16    18    1
    25    16    22    1
    26    18    19    1
    27    19    20    1
    28    20    21    1
    29    21    22    1
    30    23    24    1
    31    23    88    1
    32    23    89    1
    33    24    25    1
    34    24    26    1
    35    24    90    1
    36    25    91    1
    37    25    92    1
    38    25    93    1
    39    26    94    1
    40    26    95    1
    41    26    96    1
    42    27    28   ar
    43    28    29   ar
    44    29    30   ar
    45    29    31    1
    46    30    33    1
    47    31    32    1
    48    32    33    1
    49    32    35    1
    50    34    97    1
    51    34    98    1
    52    34    99    1
    53    35    61    1
    54    36    37    1
    55    36    60    1
    56    37    38    1
    57    38    39    1
    58    39    40    1
    59    40    41    1
    60    41    42    1
    61    45   100    1
    62    47   101    1
    63    47   102    1
    64    47   103    1
    65    48   104    1
    66    49   105    1
    67    49   106    1
    68    49   107    1
    69    50   108    1
    70    51    59    1
    71    52   109    1
    72    52   110    1
    73    52   111    1
    74    53    54    1
    75    54    55    2
    76    54    56    1
    77    56   112    1
    78    56   113    1
    79    56   114    1
    80    57   115    1
    81    57   116    1
    82    57   117    1
    83    58   118    1
    84    58   119    1
    85    58   120    1
    86    59   121    1
    87    59   122    1
    88    59   123    1
    89    60    61    2
    90     1    47    1
    91     1    62    1
    92     2    63    1
    93     3    64    1
    94     4    65    1
    95     5     6    1
    96     7     8    2
    97     9    78    1
    98    15    79    1
    99    18    80    1
   100    18    81    1
   101    19    82    1
   102    19    83    1
   103    20    23    1
   104    21    84    1
   105    21    85    1
   106    22    86    1
   107    22    87    1
   108    27    45    1
   109    28    34    1
   110    32    58    1
   111    33    46    2
   112    36    51    1
   113    36    66    1
   114    37    52    1
   115    37    67    1
   116    38    53    1
   117    38    68    1
   118    42    48    1
   119    42    72    1
   120    43    44    2
   121    60    73    1
   122    61    74    1
   123    39    69    1
   124    39    57    1
   125    40    70    1
   126    40    50    1
   127    41    71    1
   128    41    49    1
