@<TRIPOS>MOLECULE
*****
 123 128 0 0 0
SMALL
GASTEIGER

@<TRIPOS>ATOM
     1 C         4.277968   3.126393   -0.470733 C.3        1 UNL1     0.0009
     2 C         6.11246   3.246387   -0.231404 C.2        1 UNL1     -0.0787
     3 C         7.252415   3.55314   0.60672 C.2        1 UNL1     -0.0649
     4 C         8.893181   3.328928   0.254625 C.2        1 UNL1     -0.0542
     5 C         10.192113   3.201938   0.80574 C.2        1 UNL1     0.0115
     6 C         11.022601   3.342688   2.111038 C.3        1 UNL1     -0.0348
     7 C         11.358769   2.564294   -0.093878 C.2        1 UNL1     0.2441
     8 O         12.217791   3.238579   -0.645192 O.2        1 UNL1     -0.2702
     9 N         11.483125   1.167641   0.00635 N.am        1 UNL1     -0.2772
     10 C         10.662833   0.545748   -0.906718 C.2        1 UNL1     0.1049
     11 C         9.401271   0.393579   -0.54682 C.2        1 UNL1     0.0801
     12 C         10.012109   0.561436   -3.322012 C.ar        1 UNL1     0.0753
     13 C         8.653256   0.607039   -2.874747 C.ar        1 UNL1     0.0305
     14 C         8.301468   0.391646   -1.472998 C.2        1 UNL1     0.0924
     15 N         8.81972   0.557414   0.653798 N.pl3        1 UNL1     -0.3170
     16 C         7.459888   0.098879   0.549605 C.3        1 UNL1     0.1275
     17 N         7.103274   0.300861   -0.902894 N.2        1 UNL1     -0.2557
     18 C         7.472768   -1.409756   0.776667 C.3        1 UNL1     0.0016
     19 C         8.130161   -1.69412   2.117772 C.3        1 UNL1     0.0026
     20 N         7.376576   -1.013543   3.161779 N.3        1 UNL1     -0.3018
     21 C         7.256099   0.436508   2.996836 C.3        1 UNL1     0.0026
     22 C         6.589126   0.699132   1.645515 C.3        1 UNL1     0.0016
     23 C         7.733995   -1.455981   4.494875 C.3        1 UNL1     0.0012
     24 C         7.555982   -0.313615   5.50733 C.3        1 UNL1     -0.0339
     25 C         8.494303   -0.480235   6.713915 C.3        1 UNL1     -0.0615
     26 C         7.759497   1.026296   4.821764 C.3        1 UNL1     -0.0615
     27 C         10.329711   0.647098   -4.675493 C.ar        1 UNL1     0.1347
     28 C         9.376182   0.740138   -5.673579 C.ar        1 UNL1     0.0342
     29 C         8.047841   0.832581   -5.206538 C.ar        1 UNL1     0.1435
     30 C         7.717042   0.784548   -3.851737 C.ar        1 UNL1     0.0774
     31 O         6.998881   0.817496   -6.057691 O.3        1 UNL1     -0.4436
     32 C         5.875399   0.451863   -5.242232 C.3        1 UNL1     0.3143
     33 C         6.270022   0.833768   -3.829917 C.2        1 UNL1     0.2504
     34 C         9.624855   0.583386   -7.147923 C.3        1 UNL1     -0.0327
     35 O         4.783917   1.302215   -5.614819 O.2        1 UNL1     -0.4528
     36 C         1.63189   -0.722902   -5.00513 C.3        1 UNL1     0.0854
     37 C         1.125652   -1.401843   -3.67461 C.3        1 UNL1     0.0236
     38 C         -0.351471   -0.975862   -3.218107 C.3        1 UNL1     0.1131
     39 C         -0.732374   0.55646   -3.122341 C.3        1 UNL1     0.0200
     40 C         0.324362   1.648322   -2.434166 C.3        1 UNL1     0.0661
     41 C         1.095212   1.474235   -0.933135 C.3        1 UNL1     0.0091
     42 C         2.741576   2.052223   -0.366726 C.3        1 UNL1     0.0661
     43 C         11.066823   0.329904   -2.304057 C.2        1 UNL1     0.2131
     44 O         12.170874   -0.11124   -2.567116 O.2        1 UNL1     -0.2851
     45 O         11.678985   0.640889   -5.023143 O.3        1 UNL1     -0.5056
     46 O         5.552408   1.13304   -2.901844 O.2        1 UNL1     -0.2836
     47 C         3.662096   4.541694   -0.636891 C.3        1 UNL1     -0.0566
     48 O         2.231877   2.616815   0.906286 O.3        1 UNL1     -0.3909
     49 C         0.94809   0.041246   -0.472276 C.3        1 UNL1     -0.0577
     50 O         1.241184   2.13217   -3.394922 O.3        1 UNL1     -0.3910
     51 O         0.808339   0.293864   -5.529898 O.3        1 UNL1     -0.3753
     52 C         2.286683   -1.605989   -2.647342 C.3        1 UNL1     -0.0564
     53 O         -0.940297   -1.877218   -2.172561 O.3        1 UNL1     -0.4608
     54 C         -1.228628   -1.516218   -0.882416 C.2        1 UNL1     0.3042
     55 O         -2.287831   -1.683279   -0.279076 O.2        1 UNL1     -0.2512
     56 C         -0.066077   -0.902282   -0.155594 C.3        1 UNL1     0.0332
     57 C         -1.434792   0.965812   -4.499735 C.3        1 UNL1     -0.0567
     58 C         5.755446   -1.087564   -5.327698 C.3        1 UNL1     0.0210
     59 C         1.315303   0.930745   -6.701749 C.3        1 UNL1     0.0372
     60 C         3.011596   -0.168233   -4.942562 C.2        1 UNL1     -0.0208
     61 C         3.494477   0.99859   -5.371626 C.2        1 UNL1     0.0882
     62 H         4.454431   2.74117   -1.482254 H        1 UNL1     0.0365
     63 H         6.465416   2.994962   -1.23374 H        1 UNL1     0.0576
     64 H         7.133604   3.821889   1.658749 H        1 UNL1     0.0615
     65 H         8.905794   3.146104   -0.823289 H        1 UNL1     0.0622
     66 H         1.669567   -1.54267   -5.736298 H        1 UNL1     0.0645
     67 H         0.972707   -2.458695   -3.954307 H        1 UNL1     0.0362
     68 H         -0.927437   -1.366957   -4.07065 H        1 UNL1     0.0741
     69 H         -1.61421   0.657883   -2.503885 H        1 UNL1     0.0359
     70 H         -0.365138   2.49609   -2.258271 H        1 UNL1     0.0600
     71 H         0.363779   1.988637   -0.279412 H        1 UNL1     0.0348
     72 H         2.494654   2.658782   -1.250146 H        1 UNL1     0.0602
     73 H         3.673938   -0.918586   -4.58827 H        1 UNL1     0.0628
     74 H         2.879419   1.839186   -5.694642 H        1 UNL1     0.1022
     75 H         11.984863   2.782496   2.025764 H        1 UNL1     0.0279
     76 H         11.357191   4.345379   2.367415 H        1 UNL1     0.0279
     77 H         10.554112   2.83944   2.969502 H        1 UNL1     0.0279
     78 H         11.194365   0.864234   0.934056 H        1 UNL1     0.1553
     79 H         9.325061   0.567891   1.520663 H        1 UNL1     0.1484
     80 H         6.442428   -1.784398   0.748224 H        1 UNL1     0.0317
     81 H         8.014673   -1.921624   -0.025817 H        1 UNL1     0.0317
     82 H         9.186087   -1.386145   2.127031 H        1 UNL1     0.0428
     83 H         8.130476   -2.775402   2.258766 H        1 UNL1     0.0428
     84 H         6.619432   0.912167   3.749308 H        1 UNL1     0.0428
     85 H         8.224984   0.942543   3.108681 H        1 UNL1     0.0428
     86 H         6.397126   1.755711   1.617861 H        1 UNL1     0.0317
     87 H         5.584882   0.258236   1.631329 H        1 UNL1     0.0317
     88 H         7.061729   -2.277958   4.773632 H        1 UNL1     0.0429
     89 H         8.756706   -1.853583   4.522251 H        1 UNL1     0.0429
     90 H         6.520521   -0.311353   5.867925 H        1 UNL1     0.0308
     91 H         7.963916   -0.31344   7.656237 H        1 UNL1     0.0233
     92 H         8.937426   -1.478812   6.72367 H        1 UNL1     0.0233
     93 H         9.332897   0.226231   6.691504 H        1 UNL1     0.0233
     94 H         7.925808   1.810884   5.567819 H        1 UNL1     0.0233
     95 H         8.639794   0.984793   4.174217 H        1 UNL1     0.0233
     96 H         6.890089   1.301927   4.218336 H        1 UNL1     0.0233
     97 H         9.304183   1.455315   -7.710186 H        1 UNL1     0.0280
     98 H         10.690832   0.453848   -7.376332 H        1 UNL1     0.0280
     99 H         9.072149   -0.29295   -7.524283 H        1 UNL1     0.0280
     100 H         12.138891   -0.147325   -4.793304 H        1 UNL1     0.2922
     101 H         4.377404   5.294936   -0.307319 H        1 UNL1     0.0236
     102 H         2.697215   4.650018   -0.142671 H        1 UNL1     0.0236
     103 H         3.465339   4.786209   -1.6941 H        1 UNL1     0.0236
     104 H         2.235874   1.899299   1.569705 H        1 UNL1     0.2098
     105 H         0.951901   -0.691438   -1.275378 H        1 UNL1     0.0234
     106 H         1.640427   -0.257333   0.314774 H        1 UNL1     0.0234
     107 H         0.0   0.0   0.0 H        1 UNL1     0.0234
     108 H         1.756913   1.367043   -3.714879 H        1 UNL1     0.2098
     109 H         2.263077   -2.602969   -2.185621 H        1 UNL1     0.0234
     110 H         3.277942   -1.424295   -3.076451 H        1 UNL1     0.0234
     111 H         2.221587   -0.891697   -1.815779 H        1 UNL1     0.0234
     112 H         -0.096564   -1.184885   0.901076 H        1 UNL1     0.0342
     113 H         0.887754   -1.173935   -0.605323 H        1 UNL1     0.0342
     114 H         -0.162802   0.190557   -0.214856 H        1 UNL1     0.0342
     115 H         -2.089336   1.840169   -4.380326 H        1 UNL1     0.0234
     116 H         -0.733741   1.188201   -5.306656 H        1 UNL1     0.0234
     117 H         -2.151306   0.212106   -4.869164 H        1 UNL1     0.0234
     118 H         5.223353   -1.510887   -4.457824 H        1 UNL1     0.0309
     119 H         5.269111   -1.430246   -6.246529 H        1 UNL1     0.0309
     120 H         6.729671   -1.587528   -5.295643 H        1 UNL1     0.0309
     121 H         2.065862   0.271401   -7.136816 H        1 UNL1     0.0524
     122 H         0.533174   1.090973   -7.462433 H        1 UNL1     0.0524
     123 H         1.760288   1.888299   -6.446457 H        1 UNL1     0.0524
@<TRIPOS>BOND
     1     1     2    1
     2     1    42    1
     3     2     3    2
     4     3     4    1
     5     4     5    2
     6     5     7    1
     7     6    75    1
     8     6    76    1
     9     6    77    1
    10     7     9   am
    11     9    10    1
    12    10    11    2
    13    10    43    1
    14    11    14    1
    15    11    15    1
    16    12    13   ar
    17    12    27   ar
    18    12    43    1
    19    13    14    1
    20    13    30   ar
    21    14    17    2
    22    15    16    1
    23    16    17    1
    24    16    18    1
    25    16    22    1
    26    18    19    1
    27    19    20    1
    28    20    21    1
    29    21    22    1
    30    23    24    1
    31    23    88    1
    32    23    89    1
    33    24    25    1
    34    24    26    1
    35    24    90    1
    36    25    91    1
    37    25    92    1
    38    25    93    1
    39    26    94    1
    40    26    95    1
    41    26    96    1
    42    27    28   ar
    43    28    29   ar
    44    29    30   ar
    45    29    31    1
    46    30    33    1
    47    31    32    1
    48    32    33    1
    49    32    35    1
    50    34    97    1
    51    34    98    1
    52    34    99    1
    53    35    61    1
    54    36    37    1
    55    36    60    1
    56    37    38    1
    57    38    39    1
    58    39    40    1
    59    40    41    1
    60    41    42    1
    61    45   100    1
    62    47   101    1
    63    47   102    1
    64    47   103    1
    65    48   104    1
    66    49   105    1
    67    49   106    1
    68    49   107    1
    69    50   108    1
    70    51    59    1
    71    52   109    1
    72    52   110    1
    73    52   111    1
    74    53    54    1
    75    54    55    2
    76    54    56    1
    77    56   112    1
    78    56   113    1
    79    56   114    1
    80    57   115    1
    81    57   116    1
    82    57   117    1
    83    58   118    1
    84    58   119    1
    85    58   120    1
    86    59   121    1
    87    59   122    1
    88    59   123    1
    89    60    61    2
    90     1    47    1
    91     1    62    1
    92     2    63    1
    93     3    64    1
    94     4    65    1
    95     5     6    1
    96     7     8    2
    97     9    78    1
    98    15    79    1
    99    18    80    1
   100    18    81    1
   101    19    82    1
   102    19    83    1
   103    20    23    1
   104    21    84    1
   105    21    85    1
   106    22    86    1
   107    22    87    1
   108    27    45    1
   109    28    34    1
   110    32    58    1
   111    33    46    2
   112    36    51    1
   113    36    66    1
   114    37    52    1
   115    37    67    1
   116    38    53    1
   117    38    68    1
   118    42    48    1
   119    42    72    1
   120    43    44    2
   121    60    73    1
   122    61    74    1
   123    39    69    1
   124    39    57    1
   125    40    70    1
   126    40    50    1
   127    41    71    1
   128    41    49    1
