@<TRIPOS>MOLECULE
*****
 123 128 0 0 0
SMALL
GASTEIGER

@<TRIPOS>ATOM
     1 C         4.115593   2.447547   2.029908 C.3        1 UNL1     0.0009
     2 C         5.914629   2.707886   1.665582 C.2        1 UNL1     -0.0787
     3 C         7.306999   2.518484   2.014119 C.2        1 UNL1     -0.0649
     4 C         8.673369   2.947436   1.111128 C.2        1 UNL1     -0.0542
     5 C         10.057303   2.714275   0.917637 C.2        1 UNL1     0.0115
     6 C         11.309336   2.014918   1.514829 C.3        1 UNL1     -0.0348
     7 C         10.738499   3.179954   -0.459354 C.2        1 UNL1     0.2441
     8 O         11.420203   4.191133   -0.555899 O.2        1 UNL1     -0.2702
     9 N         10.717851   2.215878   -1.482234 N.am        1 UNL1     -0.2772
     10 C         9.556073   2.315629   -2.212744 C.2        1 UNL1     0.1049
     11 C         8.497432   1.708062   -1.7084 C.2        1 UNL1     0.0801
     12 C         8.093777   3.962768   -3.398475 C.ar        1 UNL1     0.0753
     13 C         7.000495   3.402092   -2.664319 C.ar        1 UNL1     0.0305
     14 C         7.14828   2.169262   -1.894031 C.2        1 UNL1     0.0924
     15 N         8.407271   0.825891   -0.698364 N.pl3        1 UNL1     -0.3170
     16 C         7.054437   0.337315   -0.661127 C.3        1 UNL1     0.1275
     17 N         6.230851   1.460764   -1.241896 N.2        1 UNL1     -0.2557
     18 C         6.96204   -0.814385   -1.657497 C.3        1 UNL1     0.0016
     19 C         8.01432   -1.852043   -1.300341 C.3        1 UNL1     0.0026
     20 N         7.772449   -2.314745   0.05923 N.3        1 UNL1     -0.3018
     21 C         7.780165   -1.267685   1.082937 C.3        1 UNL1     0.0026
     22 C         6.712696   -0.238673   0.706718 C.3        1 UNL1     0.0016
     23 C         8.52465   -3.508409   0.390899 C.3        1 UNL1     0.0012
     24 C         8.174877   -3.98904   1.808083 C.3        1 UNL1     -0.0339
     25 C         6.725841   -3.634557   2.180498 C.3        1 UNL1     -0.0615
     26 C         8.434837   -5.480362   1.931203 C.3        1 UNL1     -0.0615
     27 C         7.915615   5.068719   -4.226274 C.ar        1 UNL1     0.1347
     28 C         6.687942   5.673062   -4.430331 C.ar        1 UNL1     0.0342
     29 C         5.635727   5.134565   -3.6596 C.ar        1 UNL1     0.1435
     30 C         5.806761   4.049741   -2.798714 C.ar        1 UNL1     0.0774
     31 O         4.358808   5.542256   -3.827746 O.3        1 UNL1     -0.4436
     32 C         3.564329   4.489075   -3.26163 C.3        1 UNL1     0.3143
     33 C         4.480507   3.784902   -2.281339 C.2        1 UNL1     0.2504
     34 C         6.373052   6.69503   -5.486988 C.3        1 UNL1     -0.0327
     35 O         2.525058   5.106145   -2.49196 O.2        1 UNL1     -0.4528
     36 C         -0.42531   2.72177   -2.626759 C.3        1 UNL1     0.0854
     37 C         -0.502914   1.207223   -2.193577 C.3        1 UNL1     0.0236
     38 C         -1.655703   0.86604   -1.132249 C.3        1 UNL1     0.1131
     39 C         -1.786062   1.726069   0.188972 C.3        1 UNL1     0.0200
     40 C         -0.427806   2.14436   1.062249 C.3        1 UNL1     0.0661
     41 C         0.800143   1.084243   1.558136 C.3        1 UNL1     0.0091
     42 C         2.597891   1.369313   1.7867 C.3        1 UNL1     0.0661
     43 C         9.405232   3.272842   -3.318793 C.2        1 UNL1     0.2131
     44 O         10.279662   3.390377   -4.158016 O.2        1 UNL1     -0.2851
     45 O         9.040398   5.58062   -4.869902 O.3        1 UNL1     -0.5056
     46 O         4.183753   3.164002   -1.285209 O.2        1 UNL1     -0.2836
     47 C         3.659822   3.37647   3.187213 C.3        1 UNL1     -0.0566
     48 O         2.649326   0.710822   3.114428 O.3        1 UNL1     -0.3909
     49 C         0.65226   -0.219668   0.806178 C.3        1 UNL1     -0.0577
     50 O         0.137976   3.340914   0.566394 O.3        1 UNL1     -0.3910
     51 O         -1.250296   3.611032   -1.908397 O.3        1 UNL1     -0.3753
     52 C         0.913687   0.549097   -2.122436 C.3        1 UNL1     -0.0564
     53 O         -1.938769   -0.602231   -1.004261 O.3        1 UNL1     -0.4608
     54 C         -1.434877   -1.427445   -0.033156 C.2        1 UNL1     0.3042
     55 O         -1.970189   -1.745949   1.027897 O.2        1 UNL1     -0.2512
     56 C         -0.101293   -2.023839   -0.383272 C.3        1 UNL1     0.0332
     57 C         -2.877631   2.863362   -0.081609 C.3        1 UNL1     -0.0567
     58 C         3.233647   3.519554   -4.420167 C.3        1 UNL1     0.0210
     59 C         -2.374342   4.105426   -2.635006 C.3        1 UNL1     0.0372
     60 C         0.94289   3.307581   -2.623027 C.2        1 UNL1     -0.0208
     61 C         1.380363   4.47913   -2.159525 C.2        1 UNL1     0.0882
     62 H         3.870862   2.967908   1.096075 H        1 UNL1     0.0365
     63 H         5.85306   3.343496   0.779761 H        1 UNL1     0.0576
     64 H         7.605264   1.903441   2.866097 H        1 UNL1     0.0615
     65 H         8.278075   3.61704   0.342457 H        1 UNL1     0.0622
     66 H         -0.751944   2.725783   -3.676207 H        1 UNL1     0.0645
     67 H         -0.874156   0.689266   -3.094943 H        1 UNL1     0.0362
     68 H         -2.541268   1.120292   -1.734455 H        1 UNL1     0.0741
     69 H         -2.369653   1.169671   0.910256 H        1 UNL1     0.0359
     70 H         -0.899464   2.437421   2.019701 H        1 UNL1     0.0600
     71 H         0.419152   0.8019   2.559177 H        1 UNL1     0.0348
     72 H         2.128593   2.363689   1.80375 H        1 UNL1     0.0602
     73 H         1.590492   2.686003   -3.190037 H        1 UNL1     0.0628
     74 H         0.798793   5.146189   -1.522307 H        1 UNL1     0.1022
     75 H         11.083262   1.605214   2.528765 H        1 UNL1     0.0279
     76 H         11.674871   1.138606   0.984234 H        1 UNL1     0.0279
     77 H         12.122339   2.71992   1.742203 H        1 UNL1     0.0279
     78 H         10.744092   1.283708   -1.074255 H        1 UNL1     0.1553
     79 H         9.185783   0.298085   -0.348689 H        1 UNL1     0.1484
     80 H         5.951675   -1.239276   -1.620128 H        1 UNL1     0.0317
     81 H         7.114754   -0.458602   -2.682069 H        1 UNL1     0.0317
     82 H         9.033347   -1.451854   -1.406861 H        1 UNL1     0.0428
     83 H         7.932081   -2.663355   -2.02426 H        1 UNL1     0.0428
     84 H         7.517402   -1.629091   2.082013 H        1 UNL1     0.0428
     85 H         8.779507   -0.829536   1.211999 H        1 UNL1     0.0428
     86 H         6.654813   0.436464   1.540281 H        1 UNL1     0.0317
     87 H         5.723446   -0.71231   0.694572 H        1 UNL1     0.0317
     88 H         8.248687   -4.295392   -0.323101 H        1 UNL1     0.0429
     89 H         9.604319   -3.341793   0.284472 H        1 UNL1     0.0429
     90 H         8.848035   -3.507296   2.527106 H        1 UNL1     0.0308
     91 H         6.677391   -2.695911   2.740587 H        1 UNL1     0.0233
     92 H         6.10638   -3.549962   1.284552 H        1 UNL1     0.0233
     93 H         6.25551   -4.402896   2.80602 H        1 UNL1     0.0233
     94 H         8.158008   -5.830701   2.931436 H        1 UNL1     0.0233
     95 H         7.828849   -6.026638   1.20297 H        1 UNL1     0.0233
     96 H         9.488977   -5.71701   1.761628 H        1 UNL1     0.0233
     97 H         5.358362   6.595322   -5.860745 H        1 UNL1     0.0280
     98 H         6.453738   7.721768   -5.106783 H        1 UNL1     0.0280
     99 H         7.067022   6.574967   -6.334977 H        1 UNL1     0.0280
     100 H         9.179947   5.2472   -5.738798 H        1 UNL1     0.2922
     101 H         3.079209   4.206599   2.785429 H        1 UNL1     0.0236
     102 H         4.484035   3.718536   3.81223 H        1 UNL1     0.0236
     103 H         2.973188   2.865371   3.882558 H        1 UNL1     0.0236
     104 H         2.746983   -0.249755   2.963677 H        1 UNL1     0.2098
     105 H         1.57913   -0.60499   0.388745 H        1 UNL1     0.0234
     106 H         0.129475   -1.004082   1.353277 H        1 UNL1     0.0234
     107 H         0.0   0.0   0.0 H        1 UNL1     0.0234
     108 H         0.579309   3.125128   -0.277662 H        1 UNL1     0.2098
     109 H         1.428456   0.563874   -3.093264 H        1 UNL1     0.0234
     110 H         1.5586   0.997225   -1.358884 H        1 UNL1     0.0234
     111 H         0.854473   -0.508702   -1.833471 H        1 UNL1     0.0234
     112 H         -0.093545   -3.089555   -0.135209 H        1 UNL1     0.0342
     113 H         0.156852   -1.864232   -1.429088 H        1 UNL1     0.0342
     114 H         0.666515   -1.530139   0.228198 H        1 UNL1     0.0342
     115 H         -3.636373   2.537086   -0.806208 H        1 UNL1     0.0234
     116 H         -3.402572   3.19732   0.815586 H        1 UNL1     0.0234
     117 H         -2.468368   3.754312   -0.588219 H        1 UNL1     0.0234
     118 H         2.165017   3.552104   -4.695805 H        1 UNL1     0.0309
     119 H         3.839718   3.696147   -5.314424 H        1 UNL1     0.0309
     120 H         3.392555   2.470241   -4.148509 H        1 UNL1     0.0309
     121 H         -2.138137   5.118871   -2.95826 H        1 UNL1     0.0524
     122 H         -2.583587   3.509032   -3.538647 H        1 UNL1     0.0524
     123 H         -3.257947   4.109907   -2.003092 H        1 UNL1     0.0524
@<TRIPOS>BOND
     1     1     2    1
     2     1    42    1
     3     2     3    2
     4     3     4    1
     5     4     5    2
     6     5     7    1
     7     6    75    1
     8     6    76    1
     9     6    77    1
    10     7     9   am
    11     9    10    1
    12    10    11    2
    13    10    43    1
    14    11    14    1
    15    11    15    1
    16    12    13   ar
    17    12    27   ar
    18    12    43    1
    19    13    14    1
    20    13    30   ar
    21    14    17    2
    22    15    16    1
    23    16    17    1
    24    16    18    1
    25    16    22    1
    26    18    19    1
    27    19    20    1
    28    20    21    1
    29    21    22    1
    30    23    24    1
    31    23    88    1
    32    23    89    1
    33    24    25    1
    34    24    26    1
    35    24    90    1
    36    25    91    1
    37    25    92    1
    38    25    93    1
    39    26    94    1
    40    26    95    1
    41    26    96    1
    42    27    28   ar
    43    28    29   ar
    44    29    30   ar
    45    29    31    1
    46    30    33    1
    47    31    32    1
    48    32    33    1
    49    32    35    1
    50    34    97    1
    51    34    98    1
    52    34    99    1
    53    35    61    1
    54    36    37    1
    55    36    60    1
    56    37    38    1
    57    38    39    1
    58    39    40    1
    59    40    41    1
    60    41    42    1
    61    45   100    1
    62    47   101    1
    63    47   102    1
    64    47   103    1
    65    48   104    1
    66    49   105    1
    67    49   106    1
    68    49   107    1
    69    50   108    1
    70    51    59    1
    71    52   109    1
    72    52   110    1
    73    52   111    1
    74    53    54    1
    75    54    55    2
    76    54    56    1
    77    56   112    1
    78    56   113    1
    79    56   114    1
    80    57   115    1
    81    57   116    1
    82    57   117    1
    83    58   118    1
    84    58   119    1
    85    58   120    1
    86    59   121    1
    87    59   122    1
    88    59   123    1
    89    60    61    2
    90     1    47    1
    91     1    62    1
    92     2    63    1
    93     3    64    1
    94     4    65    1
    95     5     6    1
    96     7     8    2
    97     9    78    1
    98    15    79    1
    99    18    80    1
   100    18    81    1
   101    19    82    1
   102    19    83    1
   103    20    23    1
   104    21    84    1
   105    21    85    1
   106    22    86    1
   107    22    87    1
   108    27    45    1
   109    28    34    1
   110    32    58    1
   111    33    46    2
   112    36    51    1
   113    36    66    1
   114    37    52    1
   115    37    67    1
   116    38    53    1
   117    38    68    1
   118    42    48    1
   119    42    72    1
   120    43    44    2
   121    60    73    1
   122    61    74    1
   123    39    69    1
   124    39    57    1
   125    40    70    1
   126    40    50    1
   127    41    71    1
   128    41    49    1
