@<TRIPOS>MOLECULE
*****
 123 128 0 0 0
SMALL
GASTEIGER

@<TRIPOS>ATOM
     1 C         5.168469   1.746587   0.485419 C.3        1 UNL1     0.0009
     2 C         6.604713   2.551594   -0.366756 C.2        1 UNL1     -0.0787
     3 C         7.885899   2.45247   -1.033677 C.2        1 UNL1     -0.0649
     4 C         8.763199   3.686803   -1.790726 C.2        1 UNL1     -0.0542
     5 C         9.782453   3.9785   -2.730466 C.2        1 UNL1     0.0115
     6 C         10.909516   3.352092   -3.596876 C.3        1 UNL1     -0.0348
     7 C         9.877906   5.46141   -3.337801 C.2        1 UNL1     0.2441
     8 O         10.702544   6.282854   -2.961334 O.2        1 UNL1     -0.2702
     9 N         9.126648   5.668151   -4.507853 N.am        1 UNL1     -0.2772
     10 C         7.844421   6.055595   -4.193047 C.2        1 UNL1     0.1049
     11 C         6.998459   5.084728   -3.899811 C.2        1 UNL1     0.0801
     12 C         6.548157   7.663562   -2.78185 C.ar        1 UNL1     0.0753
     13 C         5.789   6.536229   -2.333065 C.ar        1 UNL1     0.0305
     14 C         5.904688   5.230152   -2.977915 C.2        1 UNL1     0.0924
     15 N         7.120296   3.755613   -4.058358 N.pl3        1 UNL1     -0.3170
     16 C         5.850458   3.157202   -3.742654 C.3        1 UNL1     0.1275
     17 N         5.21546   4.113224   -2.762591 N.2        1 UNL1     -0.2557
     18 C         4.996413   3.216048   -5.005526 C.3        1 UNL1     0.0016
     19 C         5.749876   2.531038   -6.134528 C.3        1 UNL1     0.0026
     20 N         6.019739   1.153   -5.748245 N.3        1 UNL1     -0.3018
     21 C         6.784221   0.99286   -4.50958 C.3        1 UNL1     0.0026
     22 C         6.00689   1.684306   -3.388174 C.3        1 UNL1     0.0016
     23 C         6.462782   0.3327   -6.857959 C.3        1 UNL1     0.0012
     24 C         5.306267   0.083284   -7.838786 C.3        1 UNL1     -0.0339
     25 C         5.381158   1.029059   -9.048728 C.3        1 UNL1     -0.0615
     26 C         5.292472   -1.373538   -8.26804 C.3        1 UNL1     -0.0615
     27 C         6.344621   8.931621   -2.242668 C.ar        1 UNL1     0.1347
     28 C         5.386622   9.202102   -1.281872 C.ar        1 UNL1     0.0342
     29 C         4.68497   8.068214   -0.820193 C.ar        1 UNL1     0.1435
     30 C         4.903316   6.785831   -1.325207 C.ar        1 UNL1     0.0774
     31 O         3.644862   8.1827   0.034251 O.3        1 UNL1     -0.4436
     32 C         2.922463   6.950152   -0.106591 C.3        1 UNL1     0.3143
     33 C         3.934772   5.9563   -0.639228 C.2        1 UNL1     0.2504
     34 C         4.940859   10.568638   -0.841446 C.3        1 UNL1     -0.0327
     35 O         2.562902   6.514282   1.210218 O.2        1 UNL1     -0.4528
     36 C         -0.681445   4.583435   0.817616 C.3        1 UNL1     0.0854
     37 C         -0.988223   3.322545   -0.078802 C.3        1 UNL1     0.0236
     38 C         -1.588606   2.062183   0.710356 C.3        1 UNL1     0.1131
     39 C         -0.86183   1.53156   2.011319 C.3        1 UNL1     0.0200
     40 C         0.799333   1.385248   2.050938 C.3        1 UNL1     0.0661
     41 C         1.757195   0.615373   0.881578 C.3        1 UNL1     0.0091
     42 C         3.464402   0.976835   0.315722 C.3        1 UNL1     0.0661
     43 C         7.497005   7.454842   -3.903627 C.2        1 UNL1     0.2131
     44 O         7.896611   8.352367   -4.623003 O.2        1 UNL1     -0.2851
     45 O         7.15693   9.966111   -2.702476 O.3        1 UNL1     -0.5056
     46 O         3.950318   4.752825   -0.507855 O.2        1 UNL1     -0.2836
     47 C         5.566035   1.317653   1.923452 C.3        1 UNL1     -0.0566
     48 O         3.912376   -0.434442   0.397787 O.3        1 UNL1     -0.3909
     49 C         0.921684   0.382548   -0.357457 C.3        1 UNL1     -0.0577
     50 O         1.400494   2.603025   2.442534 O.3        1 UNL1     -0.3910
     51 O         -0.80426   4.394529   2.209256 O.3        1 UNL1     -0.3753
     52 C         0.055026   3.160989   -1.232267 C.3        1 UNL1     -0.0564
     53 O         -2.192585   1.023027   -0.18836 O.3        1 UNL1     -0.4608
     54 C         -2.427283   -0.28344   0.152216 C.2        1 UNL1     0.3042
     55 O         -1.858069   -1.282962   -0.284577 O.2        1 UNL1     -0.2512
     56 C         -3.467833   -0.448156   1.223121 C.3        1 UNL1     0.0332
     57 C         -1.581302   2.201543   3.272928 C.3        1 UNL1     -0.0567
     58 C         1.846321   7.195199   -1.189827 C.3        1 UNL1     0.0210
     59 C         -1.116169   5.574063   2.949039 C.3        1 UNL1     0.0372
     60 C         0.647624   5.211767   0.585372 C.2        1 UNL1     -0.0208
     61 C         1.56162   5.647011   1.453657 C.2        1 UNL1     0.0882
     62 H         4.693104   2.731031   0.572648 H        1 UNL1     0.0365
     63 H         6.339072   3.605574   -0.261733 H        1 UNL1     0.0576
     64 H         8.342875   1.485288   -1.254676 H        1 UNL1     0.0615
     65 H         8.276895   4.60261   -1.443901 H        1 UNL1     0.0622
     66 H         -1.426044   5.330159   0.507741 H        1 UNL1     0.0645
     67 H         -1.854224   3.632009   -0.689403 H        1 UNL1     0.0362
     68 H         -2.535121   2.499693   1.0628 H        1 UNL1     0.0741
     69 H         -1.193642   0.520722   2.207569 H        1 UNL1     0.0359
     70 H         0.911661   0.725319   2.932378 H        1 UNL1     0.0600
     71 H         1.800711   -0.405592   1.309005 H        1 UNL1     0.0348
     72 H         3.359719   1.465597   1.295247 H        1 UNL1     0.0602
     73 H         0.764591   5.408424   -0.451398 H        1 UNL1     0.0628
     74 H         1.545028   5.43691   2.52362 H        1 UNL1     0.1022
     75 H         10.934985   2.243478   -3.465117 H        1 UNL1     0.0279
     76 H         10.808309   3.457637   -4.674692 H        1 UNL1     0.0279
     77 H         11.915856   3.634302   -3.25433 H        1 UNL1     0.0279
     78 H         9.063714   4.79796   -5.032146 H        1 UNL1     0.1553
     79 H         7.784752   3.326984   -4.676184 H        1 UNL1     0.1484
     80 H         4.03509   2.725676   -4.810187 H        1 UNL1     0.0317
     81 H         4.770033   4.252769   -5.276845 H        1 UNL1     0.0317
     82 H         6.680548   3.061765   -6.383709 H        1 UNL1     0.0428
     83 H         5.12387   2.586017   -7.025675 H        1 UNL1     0.0428
     84 H         6.904348   -0.049988   -4.199987 H        1 UNL1     0.0428
     85 H         7.814387   1.360345   -4.614608 H        1 UNL1     0.0428
     86 H         6.52409   1.434169   -2.480472 H        1 UNL1     0.0317
     87 H         5.027341   1.207204   -3.261867 H        1 UNL1     0.0317
     88 H         7.258583   0.873841   -7.386318 H        1 UNL1     0.0429
     89 H         6.895271   -0.613096   -6.506967 H        1 UNL1     0.0429
     90 H         4.354169   0.252265   -7.321903 H        1 UNL1     0.0308
     91 H         6.335612   0.928069   -9.574009 H        1 UNL1     0.0233
     92 H         4.564776   0.828878   -9.746622 H        1 UNL1     0.0233
     93 H         5.2862   2.0832   -8.761317 H        1 UNL1     0.0233
     94 H         4.599491   -1.514257   -9.104588 H        1 UNL1     0.0233
     95 H         6.289513   -1.674114   -8.601994 H        1 UNL1     0.0233
     96 H         4.982435   -2.028067   -7.448627 H        1 UNL1     0.0233
     97 H         4.141929   10.519759   -0.107585 H        1 UNL1     0.0280
     98 H         5.75193   11.13506   -0.365436 H        1 UNL1     0.0280
     99 H         4.5754   11.136267   -1.712842 H        1 UNL1     0.0280
     100 H         6.689953   10.717299   -3.023833 H        1 UNL1     0.2922
     101 H         4.700382   0.89611   2.433946 H        1 UNL1     0.0236
     102 H         6.028862   2.119699   2.49747 H        1 UNL1     0.0236
     103 H         6.312719   0.506077   1.922016 H        1 UNL1     0.0236
     104 H         4.327335   -0.561743   1.273329 H        1 UNL1     0.2098
     105 H         0.708898   1.281179   -0.931039 H        1 UNL1     0.0234
     106 H         1.290048   -0.405995   -1.013532 H        1 UNL1     0.0234
     107 H         0.0   -0.0   0.0 H        1 UNL1     0.0234
     108 H         1.216586   3.25633   1.740297 H        1 UNL1     0.2098
     109 H         1.081637   3.059616   -0.853447 H        1 UNL1     0.0234
     110 H         -0.171814   2.32603   -1.903929 H        1 UNL1     0.0234
     111 H         0.067194   4.03822   -1.892771 H        1 UNL1     0.0234
     112 H         -3.591439   -1.508834   1.461927 H        1 UNL1     0.0342
     113 H         -3.231288   0.128402   2.116133 H        1 UNL1     0.0342
     114 H         -4.425028   -0.077379   0.831373 H        1 UNL1     0.0342
     115 H         -2.651005   1.953795   3.312223 H        1 UNL1     0.0234
     116 H         -1.144025   1.922083   4.233522 H        1 UNL1     0.0234
     117 H         -1.619425   3.303391   3.223755 H        1 UNL1     0.0234
     118 H         0.945264   7.681342   -0.776587 H        1 UNL1     0.0309
     119 H         2.214705   7.783859   -2.03598 H        1 UNL1     0.0309
     120 H         1.457992   6.263235   -1.614974 H        1 UNL1     0.0309
     121 H         -0.277912   6.261916   2.841617 H        1 UNL1     0.0524
     122 H         -2.015206   6.083713   2.564297 H        1 UNL1     0.0524
     123 H         -1.26977   5.331063   3.996632 H        1 UNL1     0.0524
@<TRIPOS>BOND
     1     1     2    1
     2     1    42    1
     3     2     3    2
     4     3     4    1
     5     4     5    2
     6     5     7    1
     7     6    75    1
     8     6    76    1
     9     6    77    1
    10     7     9   am
    11     9    10    1
    12    10    11    2
    13    10    43    1
    14    11    14    1
    15    11    15    1
    16    12    13   ar
    17    12    27   ar
    18    12    43    1
    19    13    14    1
    20    13    30   ar
    21    14    17    2
    22    15    16    1
    23    16    17    1
    24    16    18    1
    25    16    22    1
    26    18    19    1
    27    19    20    1
    28    20    21    1
    29    21    22    1
    30    23    24    1
    31    23    88    1
    32    23    89    1
    33    24    25    1
    34    24    26    1
    35    24    90    1
    36    25    91    1
    37    25    92    1
    38    25    93    1
    39    26    94    1
    40    26    95    1
    41    26    96    1
    42    27    28   ar
    43    28    29   ar
    44    29    30   ar
    45    29    31    1
    46    30    33    1
    47    31    32    1
    48    32    33    1
    49    32    35    1
    50    34    97    1
    51    34    98    1
    52    34    99    1
    53    35    61    1
    54    36    37    1
    55    36    60    1
    56    37    38    1
    57    38    39    1
    58    39    40    1
    59    40    41    1
    60    41    42    1
    61    45   100    1
    62    47   101    1
    63    47   102    1
    64    47   103    1
    65    48   104    1
    66    49   105    1
    67    49   106    1
    68    49   107    1
    69    50   108    1
    70    51    59    1
    71    52   109    1
    72    52   110    1
    73    52   111    1
    74    53    54    1
    75    54    55    2
    76    54    56    1
    77    56   112    1
    78    56   113    1
    79    56   114    1
    80    57   115    1
    81    57   116    1
    82    57   117    1
    83    58   118    1
    84    58   119    1
    85    58   120    1
    86    59   121    1
    87    59   122    1
    88    59   123    1
    89    60    61    2
    90     1    47    1
    91     1    62    1
    92     2    63    1
    93     3    64    1
    94     4    65    1
    95     5     6    1
    96     7     8    2
    97     9    78    1
    98    15    79    1
    99    18    80    1
   100    18    81    1
   101    19    82    1
   102    19    83    1
   103    20    23    1
   104    21    84    1
   105    21    85    1
   106    22    86    1
   107    22    87    1
   108    27    45    1
   109    28    34    1
   110    32    58    1
   111    33    46    2
   112    36    51    1
   113    36    66    1
   114    37    52    1
   115    37    67    1
   116    38    53    1
   117    38    68    1
   118    42    48    1
   119    42    72    1
   120    43    44    2
   121    60    73    1
   122    61    74    1
   123    39    69    1
   124    39    57    1
   125    40    70    1
   126    40    50    1
   127    41    71    1
   128    41    49    1
