@<TRIPOS>MOLECULE
*****
 123 128 0 0 0
SMALL
GASTEIGER

@<TRIPOS>ATOM
     1 C         1.465183   2.767564   4.493674 C.3        1 UNL1     0.0009
     2 C         1.888061   4.42549   5.207461 C.2        1 UNL1     -0.0787
     3 C         2.874739   5.384292   5.658249 C.2        1 UNL1     -0.0649
     4 C         2.619804   6.979084   6.16619 C.2        1 UNL1     -0.0542
     5 C         3.226489   8.242245   6.374595 C.2        1 UNL1     0.0115
     6 C         4.587818   8.988571   6.430327 C.3        1 UNL1     -0.0348
     7 C         2.2922   9.541666   6.499491 C.2        1 UNL1     0.2441
     8 O         2.024701   10.068431   7.570699 O.2        1 UNL1     -0.2702
     9 N         2.015584   10.187431   5.281861 N.am        1 UNL1     -0.2772
     10 C         0.898624   9.641867   4.691876 C.2        1 UNL1     0.1049
     11 C         1.090917   8.540545   3.988786 C.2        1 UNL1     0.0801
     12 C         -1.46689   8.976325   5.159559 C.ar        1 UNL1     0.0753
     13 C         -1.145161   7.712238   4.570338 C.ar        1 UNL1     0.0305
     14 C         0.107135   7.501503   3.847568 C.2        1 UNL1     0.0924
     15 N         2.234609   7.968958   3.574319 N.pl3        1 UNL1     -0.3170
     16 C         1.889772   6.881549   2.697458 C.3        1 UNL1     0.1275
     17 N         0.52312   6.440601   3.161733 N.2        1 UNL1     -0.2557
     18 C         1.694093   7.46953   1.303295 C.3        1 UNL1     0.0016
     19 C         2.957815   8.217331   0.909098 C.3        1 UNL1     0.0026
     20 N         4.078352   7.287356   0.932998 N.3        1 UNL1     -0.3018
     21 C         4.308   6.623444   2.217853 C.3        1 UNL1     0.0026
     22 C         3.027686   5.874758   2.592233 C.3        1 UNL1     0.0016
     23 C         5.264714   7.817167   0.290746 C.3        1 UNL1     0.0012
     24 C         5.060249   7.905146   -1.229849 C.3        1 UNL1     -0.0339
     25 C         4.624537   9.316145   -1.657979 C.3        1 UNL1     -0.0615
     26 C         6.322908   7.467009   -1.951311 C.3        1 UNL1     -0.0615
     27 C         -2.711582   9.205645   5.741172 C.ar        1 UNL1     0.1347
     28 C         -3.725325   8.264329   5.758505 C.ar        1 UNL1     0.0342
     29 C         -3.369124   7.01123   5.216263 C.ar        1 UNL1     0.1435
     30 C         -2.113992   6.755496   4.662671 C.ar        1 UNL1     0.0774
     31 O         -4.280221   6.025998   5.060616 O.3        1 UNL1     -0.4436
     32 C         -3.698212   5.144032   4.088878 C.3        1 UNL1     0.3143
     33 C         -2.206386   5.398335   4.166341 C.2        1 UNL1     0.2504
     34 C         -5.158353   8.518685   6.135114 C.3        1 UNL1     -0.0327
     35 O         -3.917148   3.803466   4.545169 O.2        1 UNL1     -0.4528
     36 C         -4.165593   1.66713   1.417481 C.3        1 UNL1     0.0854
     37 C         -3.122317   1.487118   0.248424 C.3        1 UNL1     0.0236
     38 C         -2.697664   -0.030078   -0.050793 C.3        1 UNL1     0.1131
     39 C         -2.218601   -0.959908   1.135877 C.3        1 UNL1     0.0200
     40 C         -1.167229   -0.37866   2.293117 C.3        1 UNL1     0.0661
     41 C         0.289854   0.436222   1.992309 C.3        1 UNL1     0.0091
     42 C         1.135201   1.754591   2.94766 C.3        1 UNL1     0.0661
     43 C         -0.463281   10.064135   5.051398 C.2        1 UNL1     0.2131
     44 O         -0.739556   11.246429   5.144078 O.2        1 UNL1     -0.2851
     45 O         -2.927948   10.448334   6.333074 O.3        1 UNL1     -0.5056
     46 O         -1.298408   4.643125   3.899717 O.2        1 UNL1     -0.2836
     47 C         1.640714   1.658333   5.565484 C.3        1 UNL1     -0.0566
     48 O         2.464549   1.099626   2.893178 O.3        1 UNL1     -0.3909
     49 C         0.3248   0.853083   0.538864 C.3        1 UNL1     -0.0577
     50 O         -1.87402   0.263892   3.334893 O.3        1 UNL1     -0.3910
     51 O         -4.461081   0.507938   2.163397 O.3        1 UNL1     -0.3753
     52 C         -2.092954   2.663176   0.201001 C.3        1 UNL1     -0.0564
     53 O         -1.995576   -0.209161   -1.365072 O.3        1 UNL1     -0.4608
     54 C         -1.206442   -1.27637   -1.706044 C.2        1 UNL1     0.3042
     55 O         0.010983   -1.278298   -1.88412 O.2        1 UNL1     -0.2512
     56 C         -1.958545   -2.572968   -1.805479 C.3        1 UNL1     0.0332
     57 C         -3.4867   -1.797515   1.634389 C.3        1 UNL1     -0.0567
     58 C         -4.213252   5.613306   2.708282 C.3        1 UNL1     0.0210
     59 C         -5.75255   0.498483   2.769933 C.3        1 UNL1     0.0372
     60 C         -3.832477   2.735576   2.398612 C.2        1 UNL1     -0.0208
     61 C         -3.880637   2.730861   3.731429 C.2        1 UNL1     0.0882
     62 H         0.406277   3.052525   4.508738 H        1 UNL1     0.0365
     63 H         0.890154   4.823383   5.403249 H        1 UNL1     0.0576
     64 H         3.945505   5.197702   5.549841 H        1 UNL1     0.0615
     65 H         1.538538   7.034279   6.318835 H        1 UNL1     0.0622
     66 H         -5.08752   1.994698   0.916686 H        1 UNL1     0.0645
     67 H         -3.693734   1.738703   -0.661932 H        1 UNL1     0.0362
     68 H         -3.671886   -0.435408   -0.364036 H        1 UNL1     0.0741
     69 H         -1.675818   -1.79961   0.722726 H        1 UNL1     0.0359
     70 H         -0.826442   -1.333216   2.737807 H        1 UNL1     0.0600
     71 H         0.992983   -0.419675   1.989577 H        1 UNL1     0.0348
     72 H         0.434178   1.275646   3.646583 H        1 UNL1     0.0602
     73 H         -3.641208   3.640758   1.877737 H        1 UNL1     0.0628
     74 H         -4.013036   1.836043   4.340535 H        1 UNL1     0.1022
     75 H         5.4299   8.283702   6.227616 H        1 UNL1     0.0279
     76 H         4.746786   9.764118   5.684456 H        1 UNL1     0.0279
     77 H         4.838604   9.340803   7.441633 H        1 UNL1     0.0279
     78 H         2.795311   10.057041   4.640688 H        1 UNL1     0.1553
     79 H         3.111847   8.453246   3.520924 H        1 UNL1     0.1484
     80 H         1.4737   6.657098   0.600338 H        1 UNL1     0.0317
     81 H         0.832603   8.145544   1.281111 H        1 UNL1     0.0317
     82 H         3.143775   9.0782   1.568063 H        1 UNL1     0.0428
     83 H         2.79596   8.629985   -0.08718 H        1 UNL1     0.0428
     84 H         5.103353   5.872245   2.18745 H        1 UNL1     0.0428
     85 H         4.638947   7.331287   2.990348 H        1 UNL1     0.0428
     86 H         3.274492   5.29676   3.463434 H        1 UNL1     0.0317
     87 H         2.80504   5.111876   1.836233 H        1 UNL1     0.0317
     88 H         5.44022   8.829009   0.678905 H        1 UNL1     0.0429
     89 H         6.151995   7.219818   0.537079 H        1 UNL1     0.0429
     90 H         4.281847   7.193396   -1.529376 H        1 UNL1     0.0308
     91 H         5.354645   10.06936   -1.346995 H        1 UNL1     0.0233
     92 H         4.494854   9.368265   -2.741527 H        1 UNL1     0.0233
     93 H         3.661728   9.606669   -1.220452 H        1 UNL1     0.0233
     94 H         6.251532   7.707697   -3.017524 H        1 UNL1     0.0233
     95 H         7.188876   7.995958   -1.543543 H        1 UNL1     0.0233
     96 H         6.487094   6.39053   -1.85029 H        1 UNL1     0.0233
     97 H         -5.771454   7.628596   6.029856 H        1 UNL1     0.0280
     98 H         -5.261633   8.832672   7.182015 H        1 UNL1     0.0280
     99 H         -5.576576   9.30514   5.48575 H        1 UNL1     0.0280
     100 H         -3.691773   10.902121   6.022799 H        1 UNL1     0.2922
     101 H         1.34906   0.694654   5.14845 H        1 UNL1     0.0236
     102 H         1.118849   1.87575   6.496811 H        1 UNL1     0.0236
     103 H         2.696   1.528705   5.858335 H        1 UNL1     0.0236
     104 H         2.568704   0.575163   3.711139 H        1 UNL1     0.2098
     105 H         -0.340933   1.676165   0.291587 H        1 UNL1     0.0234
     106 H         1.322609   1.042343   0.143282 H        1 UNL1     0.0234
     107 H         0.0   0.0   -0.0 H        1 UNL1     0.0234
     108 H         -2.312334   1.046401   2.948464 H        1 UNL1     0.2098
     109 H         -1.520743   2.753059   1.13492 H        1 UNL1     0.0234
     110 H         -1.402578   2.59696   -0.646785 H        1 UNL1     0.0234
     111 H         -2.591376   3.63198   0.063382 H        1 UNL1     0.0234
     112 H         -1.2717   -3.382152   -2.071581 H        1 UNL1     0.0342
     113 H         -2.498579   -2.80452   -0.888641 H        1 UNL1     0.0342
     114 H         -2.697939   -2.479675   -2.612794 H        1 UNL1     0.0342
     115 H         -3.915597   -2.40805   0.827864 H        1 UNL1     0.0234
     116 H         -3.276901   -2.463143   2.474016 H        1 UNL1     0.0234
     117 H         -4.350651   -1.167285   1.907042 H        1 UNL1     0.0234
     118 H         -5.216183   5.211255   2.481367 H        1 UNL1     0.0309
     119 H         -4.232257   6.70283   2.604467 H        1 UNL1     0.0309
     120 H         -3.598745   5.240594   1.881497 H        1 UNL1     0.0309
     121 H         -5.79221   1.329179   3.474013 H        1 UNL1     0.0524
     122 H         -6.561044   0.647385   2.034948 H        1 UNL1     0.0524
     123 H         -5.916955   -0.441324   3.289382 H        1 UNL1     0.0524
@<TRIPOS>BOND
     1     1     2    1
     2     1    42    1
     3     2     3    2
     4     3     4    1
     5     4     5    2
     6     5     7    1
     7     6    75    1
     8     6    76    1
     9     6    77    1
    10     7     9   am
    11     9    10    1
    12    10    11    2
    13    10    43    1
    14    11    14    1
    15    11    15    1
    16    12    13   ar
    17    12    27   ar
    18    12    43    1
    19    13    14    1
    20    13    30   ar
    21    14    17    2
    22    15    16    1
    23    16    17    1
    24    16    18    1
    25    16    22    1
    26    18    19    1
    27    19    20    1
    28    20    21    1
    29    21    22    1
    30    23    24    1
    31    23    88    1
    32    23    89    1
    33    24    25    1
    34    24    26    1
    35    24    90    1
    36    25    91    1
    37    25    92    1
    38    25    93    1
    39    26    94    1
    40    26    95    1
    41    26    96    1
    42    27    28   ar
    43    28    29   ar
    44    29    30   ar
    45    29    31    1
    46    30    33    1
    47    31    32    1
    48    32    33    1
    49    32    35    1
    50    34    97    1
    51    34    98    1
    52    34    99    1
    53    35    61    1
    54    36    37    1
    55    36    60    1
    56    37    38    1
    57    38    39    1
    58    39    40    1
    59    40    41    1
    60    41    42    1
    61    45   100    1
    62    47   101    1
    63    47   102    1
    64    47   103    1
    65    48   104    1
    66    49   105    1
    67    49   106    1
    68    49   107    1
    69    50   108    1
    70    51    59    1
    71    52   109    1
    72    52   110    1
    73    52   111    1
    74    53    54    1
    75    54    55    2
    76    54    56    1
    77    56   112    1
    78    56   113    1
    79    56   114    1
    80    57   115    1
    81    57   116    1
    82    57   117    1
    83    58   118    1
    84    58   119    1
    85    58   120    1
    86    59   121    1
    87    59   122    1
    88    59   123    1
    89    60    61    2
    90     1    47    1
    91     1    62    1
    92     2    63    1
    93     3    64    1
    94     4    65    1
    95     5     6    1
    96     7     8    2
    97     9    78    1
    98    15    79    1
    99    18    80    1
   100    18    81    1
   101    19    82    1
   102    19    83    1
   103    20    23    1
   104    21    84    1
   105    21    85    1
   106    22    86    1
   107    22    87    1
   108    27    45    1
   109    28    34    1
   110    32    58    1
   111    33    46    2
   112    36    51    1
   113    36    66    1
   114    37    52    1
   115    37    67    1
   116    38    53    1
   117    38    68    1
   118    42    48    1
   119    42    72    1
   120    43    44    2
   121    60    73    1
   122    61    74    1
   123    39    69    1
   124    39    57    1
   125    40    70    1
   126    40    50    1
   127    41    71    1
   128    41    49    1
