@<TRIPOS>MOLECULE
*****
 123 128 0 0 0
SMALL
GASTEIGER

@<TRIPOS>ATOM
     1 C         5.167936   1.747536   0.487671 C.3        1 UNL1     0.0009
     2 C         6.604186   2.553397   -0.363687 C.2        1 UNL1     -0.0787
     3 C         7.885551   2.45498   -1.030368 C.2        1 UNL1     -0.0649
     4 C         8.762731   3.689977   -1.786473 C.2        1 UNL1     -0.0542
     5 C         9.782135   3.98248   -2.725801 C.2        1 UNL1     0.0115
     6 C         10.90955   3.356861   -3.592322 C.3        1 UNL1     -0.0348
     7 C         9.877373   5.465776   -3.332226 C.2        1 UNL1     0.2441
     8 O         10.701726   6.287193   -2.955075 O.2        1 UNL1     -0.2702
     9 N         9.126339   5.673038   -4.502329 N.am        1 UNL1     -0.2772
     10 C         7.843945   6.059986   -4.187591 C.2        1 UNL1     0.1049
     11 C         6.998148   5.08874   -3.895134 C.2        1 UNL1     0.0801
     12 C         6.546966   7.666796   -2.775734 C.ar        1 UNL1     0.0753
     13 C         5.787975   6.539013   -2.327801 C.ar        1 UNL1     0.0305
     14 C         5.904127   5.23335   -2.973406 C.2        1 UNL1     0.0924
     15 N         7.120341   3.75975   -4.054448 N.pl3        1 UNL1     -0.3170
     16 C         5.850573   3.160844   -3.739398 C.3        1 UNL1     0.1275
     17 N         5.215117   4.116128   -2.758912 N.2        1 UNL1     -0.2557
     18 C         4.996809   3.220242   -5.002434 C.3        1 UNL1     0.0016
     19 C         5.7507   2.536088   -6.131669 C.3        1 UNL1     0.0026
     20 N         6.020804   1.157884   -5.746149 N.3        1 UNL1     -0.3018
     21 C         6.785035   0.997187   -4.507401 C.3        1 UNL1     0.0026
     22 C         6.007276   1.687775   -3.385762 C.3        1 UNL1     0.0016
     23 C         6.464302   0.338355   -6.85625 C.3        1 UNL1     0.0012
     24 C         5.308076   0.089249   -7.837496 C.3        1 UNL1     -0.0339
     25 C         5.343152   1.081507   -9.011485 C.3        1 UNL1     -0.0615
     26 C         5.336485   -1.350207   -8.32117 C.3        1 UNL1     -0.0615
     27 C         6.343   8.934484   -2.235841 C.ar        1 UNL1     0.1347
     28 C         5.384712   9.20416   -1.275107 C.ar        1 UNL1     0.0342
     29 C         4.683224   8.069827   -0.814271 C.ar        1 UNL1     0.1435
     30 C         4.901995   6.787799   -1.320002 C.ar        1 UNL1     0.0774
     31 O         3.64289   8.183553   0.039999 O.3        1 UNL1     -0.4436
     32 C         2.920819   6.950915   -0.10175 C.3        1 UNL1     0.3143
     33 C         3.933491   5.957625   -0.634745 C.2        1 UNL1     0.2504
     34 C         4.938518   10.570325   -0.833968 C.3        1 UNL1     -0.0327
     35 O         2.561055   6.514172   1.214714 O.2        1 UNL1     -0.4528
     36 C         -0.682736   4.582782   0.820199 C.3        1 UNL1     0.0854
     37 C         -0.989002   3.322354   -0.077045 C.3        1 UNL1     0.0236
     38 C         -1.589267   2.061376   0.711219 C.3        1 UNL1     0.1131
     39 C         -0.862666   1.53015   2.012034 C.3        1 UNL1     0.0200
     40 C         0.798522   1.384212   2.051953 C.3        1 UNL1     0.0661
     41 C         1.756842   0.615267   0.882356 C.3        1 UNL1     0.0091
     42 C         3.464094   0.977477   0.317116 C.3        1 UNL1     0.0661
     43 C         7.496126   7.458976   -3.897415 C.2        1 UNL1     0.2131
     44 O         7.895684   8.357026   -4.616161 O.2        1 UNL1     -0.2851
     45 O         7.155167   9.969443   -2.694841 O.3        1 UNL1     -0.5056
     46 O         3.949295   4.754075   -0.504089 O.2        1 UNL1     -0.2836
     47 C         5.565269   1.317837   1.92554 C.3        1 UNL1     -0.0566
     48 O         3.912387   -0.433741   0.398441 O.3        1 UNL1     -0.3909
     49 C         0.921675   0.382983   -0.357013 C.3        1 UNL1     -0.0577
     50 O         1.399299   2.601899   2.444419 O.3        1 UNL1     -0.3910
     51 O         -0.80583   4.393013   2.211697 O.3        1 UNL1     -0.3753
     52 C         0.054555   3.161739   -1.230363 C.3        1 UNL1     -0.0564
     53 O         -2.192786   1.022613   -0.18826 O.3        1 UNL1     -0.4608
     54 C         -2.42725   -0.284113   0.15148 C.2        1 UNL1     0.3042
     55 O         -1.858715   -1.283339   -0.286873 O.2        1 UNL1     -0.2512
     56 C         -3.466507   -0.449605   1.223521 C.3        1 UNL1     0.0332
     57 C         -1.582594   2.199204   3.273876 C.3        1 UNL1     -0.0567
     58 C         1.844871   7.196353   -1.18509 C.3        1 UNL1     0.0210
     59 C         -1.118196   5.572029   2.952113 C.3        1 UNL1     0.0372
     60 C         0.646236   5.211571   0.588642 C.2        1 UNL1     -0.0208
     61 C         1.559925   5.646515   1.457401 C.2        1 UNL1     0.0882
     62 H         4.692314   2.731814   0.575378 H        1 UNL1     0.0365
     63 H         6.338267   3.607251   -0.258095 H        1 UNL1     0.0576
     64 H         8.342811   1.48804   -1.251839 H        1 UNL1     0.0615
     65 H         8.276126   4.60546   -1.439214 H        1 UNL1     0.0622
     66 H         -1.427442   5.329512   0.510597 H        1 UNL1     0.0645
     67 H         -1.854935   3.631976   -0.687663 H        1 UNL1     0.0362
     68 H         -2.535969   2.498448   1.063703 H        1 UNL1     0.0741
     69 H         -1.194282   0.519114   2.207602 H        1 UNL1     0.0359
     70 H         0.910803   0.723783   2.933024 H        1 UNL1     0.0600
     71 H         1.800503   -0.405944   1.309182 H        1 UNL1     0.0348
     72 H         3.359065   1.465628   1.296908 H        1 UNL1     0.0602
     73 H         0.763398   5.408876   -0.447983 H        1 UNL1     0.0628
     74 H         1.543134   5.435769   2.527233 H        1 UNL1     0.1022
     75 H         10.951804   2.251148   -3.441835 H        1 UNL1     0.0279
     76 H         10.796601   3.442359   -4.670748 H        1 UNL1     0.0279
     77 H         11.915058   3.658852   -3.264518 H        1 UNL1     0.0279
     78 H         9.063736   4.803145   -5.027158 H        1 UNL1     0.1553
     79 H         7.785044   3.33165   -4.672374 H        1 UNL1     0.1484
     80 H         4.035557   2.729522   -4.807613 H        1 UNL1     0.0317
     81 H         4.770243   4.257071   -5.273185 H        1 UNL1     0.0317
     82 H         6.681302   3.067188   -6.380316 H        1 UNL1     0.0428
     83 H         5.124888   2.59145   -7.02293 H        1 UNL1     0.0428
     84 H         6.90534   -0.045818   -4.198404 H        1 UNL1     0.0428
     85 H         7.815137   1.364982   -4.611968 H        1 UNL1     0.0428
     86 H         6.524325   1.437218   -2.47809 H        1 UNL1     0.0317
     87 H         5.027812   1.210362   -3.25997 H        1 UNL1     0.0317
     88 H         7.260096   0.880003   -7.384099 H        1 UNL1     0.0429
     89 H         6.896937   -0.607547   -6.505722 H        1 UNL1     0.0429
     90 H         4.355471   0.20851   -7.307841 H        1 UNL1     0.0308
     91 H         6.295905   1.030543   -9.54699 H        1 UNL1     0.0233
     92 H         4.527685   0.881779   -9.710579 H        1 UNL1     0.0233
     93 H         5.217516   2.120621   -8.683931 H        1 UNL1     0.0233
     94 H         4.641334   -1.481445   -9.157458 H        1 UNL1     0.0233
     95 H         6.339666   -1.606321   -8.673303 H        1 UNL1     0.0233
     96 H         5.05399   -2.044421   -7.524783 H        1 UNL1     0.0233
     97 H         4.139428   10.520815   -0.100323 H        1 UNL1     0.0280
     98 H         5.749342   11.136657   -0.35743 H        1 UNL1     0.0280
     99 H         4.573125   11.138387   -1.70511 H        1 UNL1     0.0280
     100 H         6.688085   10.720712   -3.015857 H        1 UNL1     0.2922
     101 H         4.699599   0.895781   2.435579 H        1 UNL1     0.0236
     102 H         6.027769   2.11965   2.500146 H        1 UNL1     0.0236
     103 H         6.312148   0.506442   1.923793 H        1 UNL1     0.0236
     104 H         4.332235   -0.559985   1.271802 H        1 UNL1     0.2098
     105 H         0.708807   1.281906   -0.930106 H        1 UNL1     0.0234
     106 H         1.290382   -0.405079   -1.013474 H        1 UNL1     0.0234
     107 H         0.0   -0.0   0.0 H        1 UNL1     0.0234
     108 H         1.205773   3.258584   1.747941 H        1 UNL1     0.2098
     109 H         1.081102   3.060386   -0.851363 H        1 UNL1     0.0234
     110 H         -0.171928   2.327127   -1.902577 H        1 UNL1     0.0234
     111 H         0.066666   4.039368   -1.890338 H        1 UNL1     0.0234
     112 H         -3.589969   -1.510472   1.461565 H        1 UNL1     0.0342
     113 H         -3.228783   0.12615   2.116738 H        1 UNL1     0.0342
     114 H         -4.42413   -0.078357   0.833269 H        1 UNL1     0.0342
     115 H         -2.652247   1.951177   3.312772 H        1 UNL1     0.0234
     116 H         -1.145475   1.919274   4.234404 H        1 UNL1     0.0234
     117 H         -1.62097   3.301073   3.225353 H        1 UNL1     0.0234
     118 H         0.943601   7.682032   -0.77177 H        1 UNL1     0.0309
     119 H         2.213311   7.785607   -2.030805 H        1 UNL1     0.0309
     120 H         1.456865   6.26455   -1.610886 H        1 UNL1     0.0309
     121 H         -0.297086   6.275012   2.814453 H        1 UNL1     0.0524
     122 H         -2.038151   6.061312   2.591111 H        1 UNL1     0.0524
     123 H         -1.235425   5.334243   4.005588 H        1 UNL1     0.0524
@<TRIPOS>BOND
     1     1     2    1
     2     1    42    1
     3     2     3    2
     4     3     4    1
     5     4     5    2
     6     5     7    1
     7     6    75    1
     8     6    76    1
     9     6    77    1
    10     7     9   am
    11     9    10    1
    12    10    11    2
    13    10    43    1
    14    11    14    1
    15    11    15    1
    16    12    13   ar
    17    12    27   ar
    18    12    43    1
    19    13    14    1
    20    13    30   ar
    21    14    17    2
    22    15    16    1
    23    16    17    1
    24    16    18    1
    25    16    22    1
    26    18    19    1
    27    19    20    1
    28    20    21    1
    29    21    22    1
    30    23    24    1
    31    23    88    1
    32    23    89    1
    33    24    25    1
    34    24    26    1
    35    24    90    1
    36    25    91    1
    37    25    92    1
    38    25    93    1
    39    26    94    1
    40    26    95    1
    41    26    96    1
    42    27    28   ar
    43    28    29   ar
    44    29    30   ar
    45    29    31    1
    46    30    33    1
    47    31    32    1
    48    32    33    1
    49    32    35    1
    50    34    97    1
    51    34    98    1
    52    34    99    1
    53    35    61    1
    54    36    37    1
    55    36    60    1
    56    37    38    1
    57    38    39    1
    58    39    40    1
    59    40    41    1
    60    41    42    1
    61    45   100    1
    62    47   101    1
    63    47   102    1
    64    47   103    1
    65    48   104    1
    66    49   105    1
    67    49   106    1
    68    49   107    1
    69    50   108    1
    70    51    59    1
    71    52   109    1
    72    52   110    1
    73    52   111    1
    74    53    54    1
    75    54    55    2
    76    54    56    1
    77    56   112    1
    78    56   113    1
    79    56   114    1
    80    57   115    1
    81    57   116    1
    82    57   117    1
    83    58   118    1
    84    58   119    1
    85    58   120    1
    86    59   121    1
    87    59   122    1
    88    59   123    1
    89    60    61    2
    90     1    47    1
    91     1    62    1
    92     2    63    1
    93     3    64    1
    94     4    65    1
    95     5     6    1
    96     7     8    2
    97     9    78    1
    98    15    79    1
    99    18    80    1
   100    18    81    1
   101    19    82    1
   102    19    83    1
   103    20    23    1
   104    21    84    1
   105    21    85    1
   106    22    86    1
   107    22    87    1
   108    27    45    1
   109    28    34    1
   110    32    58    1
   111    33    46    2
   112    36    51    1
   113    36    66    1
   114    37    52    1
   115    37    67    1
   116    38    53    1
   117    38    68    1
   118    42    48    1
   119    42    72    1
   120    43    44    2
   121    60    73    1
   122    61    74    1
   123    39    69    1
   124    39    57    1
   125    40    70    1
   126    40    50    1
   127    41    71    1
   128    41    49    1
