@<TRIPOS>MOLECULE
*****
 123 128 0 0 0
SMALL
GASTEIGER

@<TRIPOS>ATOM
     1 C         5.16425   1.765106   0.462809 C.3        1 UNL1     0.0009
     2 C         6.593749   2.575538   -0.395543 C.2        1 UNL1     -0.0787
     3 C         7.872287   2.481232   -1.068221 C.2        1 UNL1     -0.0649
     4 C         8.741726   3.718942   -1.828817 C.2        1 UNL1     -0.0542
     5 C         9.755703   4.014586   -2.773021 C.2        1 UNL1     0.0115
     6 C         10.881131   3.392501   -3.644655 C.3        1 UNL1     -0.0348
     7 C         9.843082   5.498005   -3.38033 C.2        1 UNL1     0.2441
     8 O         10.666425   6.322315   -3.00731 O.2        1 UNL1     -0.2702
     9 N         9.085852   5.702365   -4.546946 N.am        1 UNL1     -0.2772
     10 C         7.803656   6.085085   -4.226288 C.2        1 UNL1     0.1049
     11 C         6.962526   5.111085   -3.929561 C.2        1 UNL1     0.0801
     12 C         6.507925   7.687957   -2.808819 C.ar        1 UNL1     0.0753
     13 C         5.75486   6.557761   -2.356981 C.ar        1 UNL1     0.0305
     14 C         5.872375   5.252295   -3.002736 C.2        1 UNL1     0.0924
     15 N         7.08845   3.782464   -4.089053 N.pl3        1 UNL1     -0.3170
     16 C         5.822207   3.17938   -3.767849 C.3        1 UNL1     0.1275
     17 N         5.188156   4.132823   -2.784666 N.2        1 UNL1     -0.2557
     18 C         4.962311   3.235501   -5.026868 C.3        1 UNL1     0.0016
     19 C         5.713181   2.553539   -6.159437 C.3        1 UNL1     0.0026
     20 N         5.989745   1.176375   -5.774781 N.3        1 UNL1     -0.3018
     21 C         6.760337   1.018644   -4.539598 C.3        1 UNL1     0.0026
     22 C         5.985542   1.706958   -3.414516 C.3        1 UNL1     0.0016
     23 C         6.430774   0.357997   -6.886714 C.3        1 UNL1     0.0012
     24 C         5.270788   0.104685   -7.862431 C.3        1 UNL1     -0.0339
     25 C         5.356339   1.027314   -9.089416 C.3        1 UNL1     -0.0615
     26 C         5.239257   -1.359437   -8.265086 C.3        1 UNL1     -0.0615
     27 C         6.302227   8.955119   -2.268349 C.ar        1 UNL1     0.1347
     28 C         5.347569   9.221864   -1.303194 C.ar        1 UNL1     0.0342
     29 C         4.652089   8.085317   -0.838721 C.ar        1 UNL1     0.1435
     30 C         4.872801   6.803875   -1.345094 C.ar        1 UNL1     0.0774
     31 O         3.61541   8.195802   0.020404 O.3        1 UNL1     -0.4436
     32 C         2.896843   6.960692   -0.117575 C.3        1 UNL1     0.3143
     33 C         3.910339   5.970656   -0.655037 C.2        1 UNL1     0.2504
     34 C         4.898851   10.586655   -0.860366 C.3        1 UNL1     -0.0327
     35 O         2.544756   6.523152   1.200698 O.2        1 UNL1     -0.4528
     36 C         -0.694323   4.580711   0.822038 C.3        1 UNL1     0.0854
     37 C         -1.000556   3.318976   -0.073378 C.3        1 UNL1     0.0236
     38 C         -1.592846   2.056229   0.71808 C.3        1 UNL1     0.1131
     39 C         -0.858342   1.527864   2.015617 C.3        1 UNL1     0.0200
     40 C         0.803499   1.387541   2.047757 C.3        1 UNL1     0.0661
     41 C         1.758891   0.621465   0.87389 C.3        1 UNL1     0.0091
     42 C         3.462231   0.989252   0.300508 C.3        1 UNL1     0.0661
     43 C         7.452489   7.482986   -3.934894 C.2        1 UNL1     0.2131
     44 O         7.845628   8.382152   -4.655782 O.2        1 UNL1     -0.2851
     45 O         7.108729   9.992666   -2.731477 O.3        1 UNL1     -0.5056
     46 O         3.930818   4.767207   -0.524098 O.2        1 UNL1     -0.2836
     47 C         5.569796   1.3372   1.898919 C.3        1 UNL1     -0.0566
     48 O         3.91566   -0.420421   0.380143 O.3        1 UNL1     -0.3909
     49 C         0.918687   0.385977   -0.361463 C.3        1 UNL1     -0.0577
     50 O         1.402006   2.60737   2.437026 O.3        1 UNL1     -0.3910
     51 O         -0.810224   4.390966   2.214157 O.3        1 UNL1     -0.3753
     52 C         0.038096   3.161518   -1.231549 C.3        1 UNL1     -0.0564
     53 O         -2.197085   1.015154   -0.178237 O.3        1 UNL1     -0.4608
     54 C         -2.39437   -0.300292   0.151323 C.2        1 UNL1     0.3042
     55 O         -1.747783   -1.272521   -0.236664 O.2        1 UNL1     -0.2512
     56 C         -3.502423   -0.51209   1.143328 C.3        1 UNL1     0.0332
     57 C         -1.574573   2.194883   3.280636 C.3        1 UNL1     -0.0567
     58 C         1.814985   7.20216   -1.19591 C.3        1 UNL1     0.0210
     59 C         -1.123076   5.569154   2.955684 C.3        1 UNL1     0.0372
     60 C         0.631415   5.213906   0.584038 C.2        1 UNL1     -0.0208
     61 C         1.547712   5.6522   1.448355 C.2        1 UNL1     0.0882
     62 H         4.685729   2.747802   0.552462 H        1 UNL1     0.0365
     63 H         6.324777   3.628522   -0.289014 H        1 UNL1     0.0576
     64 H         8.331758   1.515771   -1.291554 H        1 UNL1     0.0615
     65 H         8.253675   4.632888   -1.479543 H        1 UNL1     0.0622
     66 H         -1.442993   5.324828   0.515724 H        1 UNL1     0.0645
     67 H         -1.870394   3.625484   -0.680003 H        1 UNL1     0.0362
     68 H         -2.539347   2.490217   1.074888 H        1 UNL1     0.0741
     69 H         -1.18562   0.515778   2.213046 H        1 UNL1     0.0359
     70 H         0.922154   0.727771   2.928487 H        1 UNL1     0.0600
     71 H         1.808005   -0.399459   1.30081 H        1 UNL1     0.0348
     72 H         3.36017   1.477353   1.280639 H        1 UNL1     0.0602
     73 H         0.74303   5.411279   -0.453186 H        1 UNL1     0.0628
     74 H         1.536669   5.441735   2.518317 H        1 UNL1     0.1022
     75 H         10.8784   2.279599   -3.552582 H        1 UNL1     0.0279
     76 H         10.799342   3.538849   -4.719347 H        1 UNL1     0.0279
     77 H         11.88835   3.63796   -3.277287 H        1 UNL1     0.0279
     78 H         9.023713   4.832101   -5.071215 H        1 UNL1     0.1553
     79 H         7.751677   3.356414   -4.709975 H        1 UNL1     0.1484
     80 H         4.003648   2.741604   -4.827376 H        1 UNL1     0.0317
     81 H         4.730977   4.271475   -5.296859 H        1 UNL1     0.0317
     82 H         6.640805   3.087695   -6.412621 H        1 UNL1     0.0428
     83 H         5.082997   2.60651   -7.047757 H        1 UNL1     0.0428
     84 H         6.885613   -0.023852   -4.23086 H        1 UNL1     0.0428
     85 H         7.788688   1.389878   -4.649124 H        1 UNL1     0.0428
     86 H         6.5077   1.458431   -2.509213 H        1 UNL1     0.0317
     87 H         5.008297   1.226285   -3.283971 H        1 UNL1     0.0317
     88 H         7.222243   0.902159   -7.418466 H        1 UNL1     0.0429
     89 H         6.868242   -0.586331   -6.537946 H        1 UNL1     0.0429
     90 H         4.321083   0.294472   -7.348374 H        1 UNL1     0.0308
     91 H         6.309211   0.905321   -9.613108 H        1 UNL1     0.0233
     92 H         4.537213   0.824288   -9.783262 H        1 UNL1     0.0233
     93 H         5.274207   2.087576   -8.82121 H        1 UNL1     0.0233
     94 H         4.580054   -1.49957   -9.128596 H        1 UNL1     0.0233
     95 H         6.242062   -1.690469   -8.549275 H        1 UNL1     0.0233
     96 H         4.877562   -1.990242   -7.448244 H        1 UNL1     0.0233
     97 H         4.070609   10.535887   -0.159889 H        1 UNL1     0.0280
     98 H         5.696046   11.136991   -0.343776 H        1 UNL1     0.0280
     99 H         4.574683   11.171032   -1.737015 H        1 UNL1     0.0280
     100 H         6.641175   10.769844   -2.982496 H        1 UNL1     0.2922
     101 H         4.687892   1.005622   2.446603 H        1 UNL1     0.0236
     102 H         6.119247   2.108887   2.437052 H        1 UNL1     0.0236
     103 H         6.242516   0.463339   1.896242 H        1 UNL1     0.0236
     104 H         4.25251   -0.571239   1.284994 H        1 UNL1     0.2098
     105 H         0.700092   1.283996   -0.933816 H        1 UNL1     0.0234
     106 H         1.286955   -0.401044   -1.019418 H        1 UNL1     0.0234
     107 H         0.0   -0.0   0.0 H        1 UNL1     0.0234
     108 H         1.25149   3.247713   1.715172 H        1 UNL1     0.2098
     109 H         1.066752   3.063746   -0.857357 H        1 UNL1     0.0234
     110 H         -0.188733   2.325937   -1.90244 H        1 UNL1     0.0234
     111 H         0.044139   4.038976   -1.891836 H        1 UNL1     0.0234
     112 H         -3.593121   -1.576954   1.378239 H        1 UNL1     0.0342
     113 H         -3.360168   0.076884   2.048158 H        1 UNL1     0.0342
     114 H         -4.444425   -0.188029   0.679882 H        1 UNL1     0.0342
     115 H         -2.661749   2.036816   3.264805 H        1 UNL1     0.0234
     116 H         -1.204209   1.833663   4.242092 H        1 UNL1     0.0234
     117 H         -1.51956   3.297098   3.286813 H        1 UNL1     0.0234
     118 H         0.912807   7.682102   -0.777894 H        1 UNL1     0.0309
     119 H         2.176589   7.79498   -2.042084 H        1 UNL1     0.0309
     120 H         1.430324   6.269008   -1.621784 H        1 UNL1     0.0309
     121 H         -0.789679   5.411608   3.981053 H        1 UNL1     0.0524
     122 H         -0.598301   6.458576   2.568931 H        1 UNL1     0.0524
     123 H         -2.19334   5.753941   2.933737 H        1 UNL1     0.0524
@<TRIPOS>BOND
     1     1     2    1
     2     1    42    1
     3     2     3    2
     4     3     4    1
     5     4     5    2
     6     5     7    1
     7     6    75    1
     8     6    76    1
     9     6    77    1
    10     7     9   am
    11     9    10    1
    12    10    11    2
    13    10    43    1
    14    11    14    1
    15    11    15    1
    16    12    13   ar
    17    12    27   ar
    18    12    43    1
    19    13    14    1
    20    13    30   ar
    21    14    17    2
    22    15    16    1
    23    16    17    1
    24    16    18    1
    25    16    22    1
    26    18    19    1
    27    19    20    1
    28    20    21    1
    29    21    22    1
    30    23    24    1
    31    23    88    1
    32    23    89    1
    33    24    25    1
    34    24    26    1
    35    24    90    1
    36    25    91    1
    37    25    92    1
    38    25    93    1
    39    26    94    1
    40    26    95    1
    41    26    96    1
    42    27    28   ar
    43    28    29   ar
    44    29    30   ar
    45    29    31    1
    46    30    33    1
    47    31    32    1
    48    32    33    1
    49    32    35    1
    50    34    97    1
    51    34    98    1
    52    34    99    1
    53    35    61    1
    54    36    37    1
    55    36    60    1
    56    37    38    1
    57    38    39    1
    58    39    40    1
    59    40    41    1
    60    41    42    1
    61    45   100    1
    62    47   101    1
    63    47   102    1
    64    47   103    1
    65    48   104    1
    66    49   105    1
    67    49   106    1
    68    49   107    1
    69    50   108    1
    70    51    59    1
    71    52   109    1
    72    52   110    1
    73    52   111    1
    74    53    54    1
    75    54    55    2
    76    54    56    1
    77    56   112    1
    78    56   113    1
    79    56   114    1
    80    57   115    1
    81    57   116    1
    82    57   117    1
    83    58   118    1
    84    58   119    1
    85    58   120    1
    86    59   121    1
    87    59   122    1
    88    59   123    1
    89    60    61    2
    90     1    47    1
    91     1    62    1
    92     2    63    1
    93     3    64    1
    94     4    65    1
    95     5     6    1
    96     7     8    2
    97     9    78    1
    98    15    79    1
    99    18    80    1
   100    18    81    1
   101    19    82    1
   102    19    83    1
   103    20    23    1
   104    21    84    1
   105    21    85    1
   106    22    86    1
   107    22    87    1
   108    27    45    1
   109    28    34    1
   110    32    58    1
   111    33    46    2
   112    36    51    1
   113    36    66    1
   114    37    52    1
   115    37    67    1
   116    38    53    1
   117    38    68    1
   118    42    48    1
   119    42    72    1
   120    43    44    2
   121    60    73    1
   122    61    74    1
   123    39    69    1
   124    39    57    1
   125    40    70    1
   126    40    50    1
   127    41    71    1
   128    41    49    1
