@<TRIPOS>MOLECULE
*****
 123 128 0 0 0
SMALL
GASTEIGER

@<TRIPOS>ATOM
     1 C         4.975779   2.232156   0.520435 C.3        1 UNL1     0.0009
     2 C         6.363103   3.106466   -0.344407 C.2        1 UNL1     -0.0787
     3 C         7.674537   3.082684   -0.957287 C.2        1 UNL1     -0.0649
     4 C         8.461127   4.33542   -1.780868 C.2        1 UNL1     -0.0542
     5 C         9.486204   4.652777   -2.705843 C.2        1 UNL1     0.0115
     6 C         10.702822   4.075387   -3.4803 C.3        1 UNL1     -0.0348
     7 C         9.465292   6.08691   -3.426826 C.2        1 UNL1     0.2441
     8 O         10.191642   7.011769   -3.089813 O.2        1 UNL1     -0.2702
     9 N         8.747096   6.128545   -4.634556 N.am        1 UNL1     -0.2772
     10 C         7.421838   6.411285   -4.395661 C.2        1 UNL1     0.1049
     11 C         6.660639   5.387455   -4.054238 C.2        1 UNL1     0.0801
     12 C         5.920867   7.987779   -3.163149 C.ar        1 UNL1     0.0753
     13 C         5.254422   6.829154   -2.651244 C.ar        1 UNL1     0.0305
     14 C         5.520594   5.495131   -3.18471 C.2        1 UNL1     0.0924
     15 N         6.914891   4.068486   -4.101196 N.pl3        1 UNL1     -0.3170
     16 C         5.695731   3.374334   -3.781733 C.3        1 UNL1     0.1275
     17 N         4.932423   4.335782   -2.903836 N.2        1 UNL1     -0.2557
     18 C         4.893239   3.252017   -5.073533 C.3        1 UNL1     0.0016
     19 C         5.754778   2.55967   -6.117561 C.3        1 UNL1     0.0026
     20 N         6.138246   1.248486   -5.612806 N.3        1 UNL1     -0.3018
     21 C         6.862306   1.259651   -4.340021 C.3        1 UNL1     0.0026
     22 C         5.976731   1.955459   -3.304887 C.3        1 UNL1     0.0016
     23 C         6.703115   0.392918   -6.637292 C.3        1 UNL1     0.0012
     24 C         5.61739   -0.043305   -7.633618 C.3        1 UNL1     -0.0339
     25 C         5.842389   0.582139   -9.020071 C.3        1 UNL1     -0.0615
     26 C         5.556903   -1.559119   -7.707316 C.3        1 UNL1     -0.0615
     27 C         5.575334   9.267353   -2.734876 C.ar        1 UNL1     0.1347
     28 C         4.556808   9.515421   -1.832037 C.ar        1 UNL1     0.0342
     29 C         3.947646   8.356925   -1.304807 C.ar        1 UNL1     0.1435
     30 C         4.307849   7.067214   -1.697388 C.ar        1 UNL1     0.0774
     31 O         2.866724   8.433996   -0.498163 O.3        1 UNL1     -0.4436
     32 C         2.271378   7.129346   -0.563928 C.3        1 UNL1     0.3143
     33 C         3.394944   6.20172   -0.980247 C.2        1 UNL1     0.2504
     34 C         3.965096   10.861355   -1.51829 C.3        1 UNL1     -0.0327
     35 O         1.90046   6.762611   0.770679 O.2        1 UNL1     -0.4528
     36 C         -1.126272   4.498282   0.424568 C.3        1 UNL1     0.0854
     37 C         -1.274116   3.148332   -0.377492 C.3        1 UNL1     0.0236
     38 C         -1.784146   1.899409   0.489576 C.3        1 UNL1     0.1131
     39 C         -1.064924   1.544057   1.852923 C.3        1 UNL1     0.0200
     40 C         0.59953   1.564951   1.960589 C.3        1 UNL1     0.0661
     41 C         1.674118   0.805363   0.890123 C.3        1 UNL1     0.0091
     42 C         3.361235   1.288142   0.35537 C.3        1 UNL1     0.0661
     43 C         6.93111   7.787742   -4.231631 C.2        1 UNL1     0.2131
     44 O         7.273073   8.662302   -5.006837 O.2        1 UNL1     -0.2851
     45 O         6.303936   10.338228   -3.248494 O.3        1 UNL1     -0.5056
     46 O         3.519463   5.019223   -0.752102 O.2        1 UNL1     -0.2836
     47 C         5.352192   1.955907   2.000969 C.3        1 UNL1     -0.0566
     48 O         3.937669   -0.061881   0.565791 O.3        1 UNL1     -0.3909
     49 C         0.916823   0.397295   -0.353854 C.3        1 UNL1     -0.0577
     50 O         1.065268   2.862284   2.273221 O.3        1 UNL1     -0.3910
     51 O         -1.288338   4.405562   1.821911 O.3        1 UNL1     -0.3753
     52 C         -0.173152   3.001924   -1.478125 C.3        1 UNL1     -0.0564
     53 O         -2.248587   0.740123   -0.342695 O.3        1 UNL1     -0.4608
     54 C         -2.368931   -0.553634   0.092782 C.2        1 UNL1     0.3042
     55 O         -1.487399   -1.410637   0.140594 O.2        1 UNL1     -0.2512
     56 C         -3.739137   -0.889427   0.609012 C.3        1 UNL1     0.0332
     57 C         -1.896743   2.235003   3.031416 C.3        1 UNL1     -0.0567
     58 C         1.222799   7.183766   -1.699291 C.3        1 UNL1     0.0210
     59 C         -2.501999   4.964024   2.322923 C.3        1 UNL1     0.0372
     60 C         0.145478   5.234337   0.187854 C.2        1 UNL1     -0.0208
     61 C         0.976995   5.822506   1.04889 C.2        1 UNL1     0.0882
     62 H         4.405677   3.168972   0.512043 H        1 UNL1     0.0365
     63 H         5.994233   4.134225   -0.333537 H        1 UNL1     0.0576
     64 H         8.230271   2.150928   -1.084168 H        1 UNL1     0.0615
     65 H         7.875876   5.222977   -1.525508 H        1 UNL1     0.0622
     66 H         -1.925012   5.14234   0.03055 H        1 UNL1     0.0645
     67 H         -2.139483   3.323549   -1.040062 H        1 UNL1     0.0362
     68 H         -2.781837   2.26766   0.773347 H        1 UNL1     0.0741
     69 H         -1.306916   0.523584   2.118411 H        1 UNL1     0.0359
     70 H         0.737383   0.988811   2.895533 H        1 UNL1     0.0600
     71 H         1.796772   -0.170587   1.399471 H        1 UNL1     0.0348
     72 H         3.169861   1.837974   1.28831 H        1 UNL1     0.0602
     73 H         0.286228   5.361399   -0.856796 H        1 UNL1     0.0628
     74 H         0.935977   5.694501   2.131096 H        1 UNL1     0.1022
     75 H         10.797754   2.977584   -3.299058 H        1 UNL1     0.0279
     76 H         10.657586   4.130583   -4.565646 H        1 UNL1     0.0279
     77 H         11.665336   4.442733   -3.095171 H        1 UNL1     0.0279
     78 H         8.789119   5.218731   -5.089035 H        1 UNL1     0.1553
     79 H         7.642242   3.661005   -4.659633 H        1 UNL1     0.1484
     80 H         3.975651   2.686106   -4.872179 H        1 UNL1     0.0317
     81 H         4.580716   4.23763   -5.434847 H        1 UNL1     0.0317
     82 H         6.640279   3.158482   -6.376837 H        1 UNL1     0.0428
     83 H         5.163995   2.484415   -7.030996 H        1 UNL1     0.0428
     84 H         7.06814   0.260467   -3.943695 H        1 UNL1     0.0428
     85 H         7.8563   1.717317   -4.43919 H        1 UNL1     0.0428
     86 H         6.477178   1.827667   -2.362969 H        1 UNL1     0.0317
     87 H         5.042625   1.39563   -3.173989 H        1 UNL1     0.0317
     88 H         7.465097   0.967408   -7.180099 H        1 UNL1     0.0429
     89 H         7.208666   -0.476138   -6.196914 H        1 UNL1     0.0429
     90 H         4.637623   0.277765   -7.260544 H        1 UNL1     0.0308
     91 H         6.887688   0.494355   -9.331108 H        1 UNL1     0.0233
     92 H         5.204502   0.104503   -9.767448 H        1 UNL1     0.0233
     93 H         5.592509   1.649804   -9.042124 H        1 UNL1     0.0233
     94 H         5.096431   -1.873347   -8.650217 H        1 UNL1     0.0233
     95 H         6.567413   -1.975612   -7.67038 H        1 UNL1     0.0233
     96 H         4.972982   -1.975786   -6.881851 H        1 UNL1     0.0233
     97 H         2.898659   10.894732   -1.72035 H        1 UNL1     0.0280
     98 H         4.078722   11.126629   -0.459056 H        1 UNL1     0.0280
     99 H         4.457462   11.633153   -2.132293 H        1 UNL1     0.0280
     100 H         5.969292   10.688338   -4.055376 H        1 UNL1     0.2922
     101 H         4.448117   1.779978   2.58351 H        1 UNL1     0.0236
     102 H         5.97479   2.736048   2.437701 H        1 UNL1     0.0236
     103 H         5.941601   1.030538   2.112692 H        1 UNL1     0.0236
     104 H         4.252709   -0.10735   1.489725 H        1 UNL1     0.2098
     105 H         0.685573   1.217935   -1.028306 H        1 UNL1     0.0234
     106 H         1.360185   -0.431585   -0.905502 H        1 UNL1     0.0234
     107 H         0.0   -0.0   0.0 H        1 UNL1     0.0234
     108 H         0.973598   3.405563   1.466863 H        1 UNL1     0.2098
     109 H         -0.220609   3.807832   -2.223761 H        1 UNL1     0.0234
     110 H         0.840544   2.94181   -1.067576 H        1 UNL1     0.0234
     111 H         -0.28742   2.067188   -2.043065 H        1 UNL1     0.0234
     112 H         -4.050862   -1.866958   0.228739 H        1 UNL1     0.0342
     113 H         -3.785506   -0.860376   1.6966 H        1 UNL1     0.0342
     114 H         -4.443735   -0.138613   0.225627 H        1 UNL1     0.0342
     115 H         -2.964037   1.978702   2.982629 H        1 UNL1     0.0234
     116 H         -1.543354   1.980453   4.0326 H        1 UNL1     0.0234
     117 H         -1.938035   3.335135   2.95431 H        1 UNL1     0.0234
     118 H         0.190018   7.129144   -1.312786 H        1 UNL1     0.0309
     119 H         1.321546   8.070701   -2.333167 H        1 UNL1     0.0309
     120 H         1.286605   6.321581   -2.372101 H        1 UNL1     0.0309
     121 H         -2.328109   5.255277   3.358438 H        1 UNL1     0.0524
     122 H         -2.805792   5.868588   1.770193 H        1 UNL1     0.0524
     123 H         -3.302957   4.232154   2.268843 H        1 UNL1     0.0524
@<TRIPOS>BOND
     1     1     2    1
     2     1    42    1
     3     2     3    2
     4     3     4    1
     5     4     5    2
     6     5     7    1
     7     6    75    1
     8     6    76    1
     9     6    77    1
    10     7     9   am
    11     9    10    1
    12    10    11    2
    13    10    43    1
    14    11    14    1
    15    11    15    1
    16    12    13   ar
    17    12    27   ar
    18    12    43    1
    19    13    14    1
    20    13    30   ar
    21    14    17    2
    22    15    16    1
    23    16    17    1
    24    16    18    1
    25    16    22    1
    26    18    19    1
    27    19    20    1
    28    20    21    1
    29    21    22    1
    30    23    24    1
    31    23    88    1
    32    23    89    1
    33    24    25    1
    34    24    26    1
    35    24    90    1
    36    25    91    1
    37    25    92    1
    38    25    93    1
    39    26    94    1
    40    26    95    1
    41    26    96    1
    42    27    28   ar
    43    28    29   ar
    44    29    30   ar
    45    29    31    1
    46    30    33    1
    47    31    32    1
    48    32    33    1
    49    32    35    1
    50    34    97    1
    51    34    98    1
    52    34    99    1
    53    35    61    1
    54    36    37    1
    55    36    60    1
    56    37    38    1
    57    38    39    1
    58    39    40    1
    59    40    41    1
    60    41    42    1
    61    45   100    1
    62    47   101    1
    63    47   102    1
    64    47   103    1
    65    48   104    1
    66    49   105    1
    67    49   106    1
    68    49   107    1
    69    50   108    1
    70    51    59    1
    71    52   109    1
    72    52   110    1
    73    52   111    1
    74    53    54    1
    75    54    55    2
    76    54    56    1
    77    56   112    1
    78    56   113    1
    79    56   114    1
    80    57   115    1
    81    57   116    1
    82    57   117    1
    83    58   118    1
    84    58   119    1
    85    58   120    1
    86    59   121    1
    87    59   122    1
    88    59   123    1
    89    60    61    2
    90     1    47    1
    91     1    62    1
    92     2    63    1
    93     3    64    1
    94     4    65    1
    95     5     6    1
    96     7     8    2
    97     9    78    1
    98    15    79    1
    99    18    80    1
   100    18    81    1
   101    19    82    1
   102    19    83    1
   103    20    23    1
   104    21    84    1
   105    21    85    1
   106    22    86    1
   107    22    87    1
   108    27    45    1
   109    28    34    1
   110    32    58    1
   111    33    46    2
   112    36    51    1
   113    36    66    1
   114    37    52    1
   115    37    67    1
   116    38    53    1
   117    38    68    1
   118    42    48    1
   119    42    72    1
   120    43    44    2
   121    60    73    1
   122    61    74    1
   123    39    69    1
   124    39    57    1
   125    40    70    1
   126    40    50    1
   127    41    71    1
   128    41    49    1
