@<TRIPOS>MOLECULE
*****
 123 128 0 0 0
SMALL
GASTEIGER

@<TRIPOS>ATOM
     1 C         4.182235   1.034608   -0.067997 C.3        1 UNL1     0.0009
     2 C         5.282023   1.446959   1.366391 C.2        1 UNL1     -0.0787
     3 C         6.02863   2.417981   2.138234 C.2        1 UNL1     -0.0649
     4 C         6.847439   2.177595   3.600467 C.2        1 UNL1     -0.0542
     5 C         7.388131   2.811615   4.746219 C.2        1 UNL1     0.0115
     6 C         7.741803   4.189401   5.370675 C.3        1 UNL1     -0.0348
     7 C         7.702711   1.926622   6.04807 C.2        1 UNL1     0.2441
     8 O         8.83163   1.564517   6.349645 O.2        1 UNL1     -0.2702
     9 N         6.635901   1.815837   6.956803 N.am        1 UNL1     -0.2772
     10 C         5.832292   0.74896   6.626182 C.2        1 UNL1     0.1049
     11 C         4.926576   0.97037   5.690833 C.2        1 UNL1     0.0801
     12 C         5.904577   -1.68064   6.035292 C.ar        1 UNL1     0.0753
     13 C         5.086365   -1.350498   4.908286 C.ar        1 UNL1     0.0305
     14 C         4.462984   -0.03578   4.774252 C.2        1 UNL1     0.0924
     15 N         4.512102   2.127198   5.146326 N.pl3        1 UNL1     -0.3170
     16 C         3.387474   1.835318   4.297637 C.3        1 UNL1     0.1275
     17 N         3.605132   0.407548   3.859661 N.2        1 UNL1     -0.2557
     18 C         2.144674   1.822057   5.182495 C.3        1 UNL1     0.0016
     19 C         2.052375   3.153166   5.911343 C.3        1 UNL1     0.0026
     20 N         1.982051   4.222544   4.925182 N.3        1 UNL1     -0.3018
     21 C         3.105432   4.278415   3.987492 C.3        1 UNL1     0.0026
     22 C         3.176657   2.933004   3.263137 C.3        1 UNL1     0.0016
     23 C         1.593351   5.495028   5.499935 C.3        1 UNL1     0.0012
     24 C         2.826031   6.248188   6.024345 C.3        1 UNL1     -0.0339
     25 C         2.479841   7.697002   6.405328 C.3        1 UNL1     -0.0615
     26 C         3.439174   5.494486   7.191722 C.3        1 UNL1     -0.0615
     27 C         6.395832   -2.971261   6.217184 C.ar        1 UNL1     0.1347
     28 C         6.104641   -4.020586   5.363852 C.ar        1 UNL1     0.0342
     29 C         5.33786   -3.660979   4.235182 C.ar        1 UNL1     0.1435
     30 C         4.869016   -2.364266   4.020847 C.ar        1 UNL1     0.0774
     31 O         4.879338   -4.591018   3.369278 O.3        1 UNL1     -0.4436
     32 C         3.799953   -3.943201   2.679253 C.3        1 UNL1     0.3143
     33 C         4.07931   -2.459675   2.810877 C.2        1 UNL1     0.2504
     34 C         6.383771   -5.474244   5.626653 C.3        1 UNL1     -0.0327
     35 O         3.925732   -4.269734   1.289718 O.2        1 UNL1     -0.4528
     36 C         0.395515   -4.260572   -0.10512 C.3        1 UNL1     0.0854
     37 C         -0.674927   -3.102277   -0.099607 C.3        1 UNL1     0.0236
     38 C         -1.257248   -2.713291   -1.54229 C.3        1 UNL1     0.1131
     39 C         -0.262935   -2.410415   -2.734715 C.3        1 UNL1     0.0200
     40 C         1.092468   -1.47035   -2.486528 C.3        1 UNL1     0.0661
     41 C         1.124772   0.045236   -1.725236 C.3        1 UNL1     0.0091
     42 C         2.426147   0.835321   -0.701716 C.3        1 UNL1     0.0661
     43 C         6.138888   -0.62488   7.051525 C.2        1 UNL1     0.2131
     44 O         6.46177   -0.858089   8.202219 O.2        1 UNL1     -0.2851
     45 O         7.222398   -3.198026   7.315731 O.3        1 UNL1     -0.5056
     46 O         3.744446   -1.561337   2.07148 O.2        1 UNL1     -0.2836
     47 C         4.99543   1.041139   -1.390363 C.3        1 UNL1     -0.0566
     48 O         2.361072   2.132708   -1.417026 O.3        1 UNL1     -0.3909
     49 C         -0.190333   0.260111   -1.009819 C.3        1 UNL1     -0.0577
     50 O         2.174693   -2.260272   -2.036489 O.3        1 UNL1     -0.3910
     51 O         0.834682   -4.687511   -1.374879 O.3        1 UNL1     -0.3753
     52 C         -0.359684   -2.023882   0.987884 C.3        1 UNL1     -0.0564
     53 O         -2.502295   -1.877501   -1.481969 O.3        1 UNL1     -0.4608
     54 C         -3.140211   -1.322218   -2.560233 C.2        1 UNL1     0.3042
     55 O         -2.625669   -0.737787   -3.512874 O.2        1 UNL1     -0.2512
     56 C         -4.628036   -1.529603   -2.55113 C.3        1 UNL1     0.0332
     57 C         -0.089625   -3.761406   -3.573144 C.3        1 UNL1     -0.0567
     58 C         2.512452   -4.280202   3.466845 C.3        1 UNL1     0.0210
     59 C         1.862314   -3.88523   -1.954691 C.3        1 UNL1     0.0372
     60 C         1.615984   -3.992779   0.703524 C.2        1 UNL1     -0.0208
     61 C         2.903494   -4.189401   0.416469 C.2        1 UNL1     0.0882
     62 H         4.154433   -0.005975   0.277148 H        1 UNL1     0.0365
     63 H         5.460523   0.451698   1.778777 H        1 UNL1     0.0576
     64 H         5.988697   3.485024   1.908165 H        1 UNL1     0.0615
     65 H         6.900318   1.089482   3.693714 H        1 UNL1     0.0622
     66 H         -0.109874   -5.105792   0.382969 H        1 UNL1     0.0645
     67 H         -1.559663   -3.557146   0.378825 H        1 UNL1     0.0362
     68 H         -1.74725   -3.663213   -1.805101 H        1 UNL1     0.0741
     69 H         -0.794869   -1.861984   -3.500664 H        1 UNL1     0.0359
     70 H         1.347602   -1.223103   -3.534783 H        1 UNL1     0.0600
     71 H         1.003459   0.706396   -2.605639 H        1 UNL1     0.0348
     72 H         2.92925   0.040582   -1.271447 H        1 UNL1     0.0602
     73 H         1.328897   -3.705446   1.684477 H        1 UNL1     0.0628
     74 H         3.284329   -4.427673   -0.577225 H        1 UNL1     0.1022
     75 H         7.662688   4.998641   4.605231 H        1 UNL1     0.0279
     76 H         7.084046   4.547802   6.159328 H        1 UNL1     0.0279
     77 H         8.800394   4.266472   5.659026 H        1 UNL1     0.0279
     78 H         6.062455   2.655777   6.91512 H        1 UNL1     0.1553
     79 H         4.654084   3.025144   5.571139 H        1 UNL1     0.1484
     80 H         1.26172   1.646295   4.556183 H        1 UNL1     0.0317
     81 H         2.186462   0.998629   5.903517 H        1 UNL1     0.0317
     82 H         2.899889   3.301754   6.596584 H        1 UNL1     0.0428
     83 H         1.160418   3.1215   6.537809 H        1 UNL1     0.0428
     84 H         2.989487   5.038775   3.20889 H        1 UNL1     0.0428
     85 H         4.043811   4.551636   4.4896 H        1 UNL1     0.0428
     86 H         3.919266   3.055766   2.496684 H        1 UNL1     0.0317
     87 H         2.252921   2.763074   2.69663 H        1 UNL1     0.0317
     88 H         1.125287   6.097601   4.710557 H        1 UNL1     0.0429
     89 H         0.843847   5.363017   6.290878 H        1 UNL1     0.0429
     90 H         3.594897   6.266839   5.242865 H        1 UNL1     0.0308
     91 H         3.084922   8.041766   7.249198 H        1 UNL1     0.0233
     92 H         2.633782   8.367021   5.556219 H        1 UNL1     0.0233
     93 H         1.429443   7.811974   6.699063 H        1 UNL1     0.0233
     94 H         3.37797   6.09713   8.104361 H        1 UNL1     0.0233
     95 H         2.891318   4.563973   7.364815 H        1 UNL1     0.0233
     96 H         4.489973   5.255926   7.004961 H        1 UNL1     0.0233
     97 H         7.445572   -5.69864   5.588503 H        1 UNL1     0.0280
     98 H         6.046165   -5.786849   6.623426 H        1 UNL1     0.0280
     99 H         5.872814   -6.090952   4.869231 H        1 UNL1     0.0280
     100 H         6.767748   -3.42814   8.106909 H        1 UNL1     0.2922
     101 H         4.327161   0.868815   -2.233795 H        1 UNL1     0.0236
     102 H         5.832253   0.343538   -1.382417 H        1 UNL1     0.0236
     103 H         5.451577   2.024907   -1.591171 H        1 UNL1     0.0236
     104 H         2.968424   2.079247   -2.180725 H        1 UNL1     0.2098
     105 H         -0.548612   1.28634   -1.027202 H        1 UNL1     0.0234
     106 H         -0.986477   -0.423031   -1.305454 H        1 UNL1     0.0234
     107 H         0.0   0.0   0.0 H        1 UNL1     0.0234
     108 H         2.984656   -1.722595   -2.129393 H        1 UNL1     0.2098
     109 H         -1.202475   -1.867999   1.675717 H        1 UNL1     0.0234
     110 H         0.54637   -2.244219   1.562568 H        1 UNL1     0.0234
     111 H         -0.157631   -1.042615   0.538178 H        1 UNL1     0.0234
     112 H         -4.871032   -2.501426   -2.991423 H        1 UNL1     0.0342
     113 H         -5.048207   -1.437883   -1.550686 H        1 UNL1     0.0342
     114 H         -5.086674   -0.75201   -3.17736 H        1 UNL1     0.0342
     115 H         -0.336786   -3.618196   -4.634082 H        1 UNL1     0.0234
     116 H         0.914055   -4.188388   -3.524549 H        1 UNL1     0.0234
     117 H         -0.808982   -4.549443   -3.291249 H        1 UNL1     0.0234
     118 H         1.808219   -3.430285   3.493355 H        1 UNL1     0.0309
     119 H         1.992943   -5.163943   3.083029 H        1 UNL1     0.0309
     120 H         2.707754   -4.479509   4.526203 H        1 UNL1     0.0309
     121 H         1.383964   -3.167074   -2.620115 H        1 UNL1     0.0524
     122 H         2.423889   -3.313205   -1.197421 H        1 UNL1     0.0524
     123 H         2.556105   -4.508241   -2.512012 H        1 UNL1     0.0524
@<TRIPOS>BOND
     1     1     2    1
     2     1    42    1
     3     2     3    2
     4     3     4    1
     5     4     5    2
     6     5     7    1
     7     6    75    1
     8     6    76    1
     9     6    77    1
    10     7     9   am
    11     9    10    1
    12    10    11    2
    13    10    43    1
    14    11    14    1
    15    11    15    1
    16    12    13   ar
    17    12    27   ar
    18    12    43    1
    19    13    14    1
    20    13    30   ar
    21    14    17    2
    22    15    16    1
    23    16    17    1
    24    16    18    1
    25    16    22    1
    26    18    19    1
    27    19    20    1
    28    20    21    1
    29    21    22    1
    30    23    24    1
    31    23    88    1
    32    23    89    1
    33    24    25    1
    34    24    26    1
    35    24    90    1
    36    25    91    1
    37    25    92    1
    38    25    93    1
    39    26    94    1
    40    26    95    1
    41    26    96    1
    42    27    28   ar
    43    28    29   ar
    44    29    30   ar
    45    29    31    1
    46    30    33    1
    47    31    32    1
    48    32    33    1
    49    32    35    1
    50    34    97    1
    51    34    98    1
    52    34    99    1
    53    35    61    1
    54    36    37    1
    55    36    60    1
    56    37    38    1
    57    38    39    1
    58    39    40    1
    59    40    41    1
    60    41    42    1
    61    45   100    1
    62    47   101    1
    63    47   102    1
    64    47   103    1
    65    48   104    1
    66    49   105    1
    67    49   106    1
    68    49   107    1
    69    50   108    1
    70    51    59    1
    71    52   109    1
    72    52   110    1
    73    52   111    1
    74    53    54    1
    75    54    55    2
    76    54    56    1
    77    56   112    1
    78    56   113    1
    79    56   114    1
    80    57   115    1
    81    57   116    1
    82    57   117    1
    83    58   118    1
    84    58   119    1
    85    58   120    1
    86    59   121    1
    87    59   122    1
    88    59   123    1
    89    60    61    2
    90     1    47    1
    91     1    62    1
    92     2    63    1
    93     3    64    1
    94     4    65    1
    95     5     6    1
    96     7     8    2
    97     9    78    1
    98    15    79    1
    99    18    80    1
   100    18    81    1
   101    19    82    1
   102    19    83    1
   103    20    23    1
   104    21    84    1
   105    21    85    1
   106    22    86    1
   107    22    87    1
   108    27    45    1
   109    28    34    1
   110    32    58    1
   111    33    46    2
   112    36    51    1
   113    36    66    1
   114    37    52    1
   115    37    67    1
   116    38    53    1
   117    38    68    1
   118    42    48    1
   119    42    72    1
   120    43    44    2
   121    60    73    1
   122    61    74    1
   123    39    69    1
   124    39    57    1
   125    40    70    1
   126    40    50    1
   127    41    71    1
   128    41    49    1
