@<TRIPOS>MOLECULE
*****
 123 128 0 0 0
SMALL
GASTEIGER

@<TRIPOS>ATOM
     1 C         1.422137   -3.039516   3.178311 C.3        1 UNL1     0.0009
     2 C         2.613884   -4.455222   3.066259 C.2        1 UNL1     -0.0787
     3 C         2.881838   -5.877486   3.103806 C.2        1 UNL1     -0.0649
     4 C         4.341779   -6.670288   2.777625 C.2        1 UNL1     -0.0542
     5 C         4.938334   -7.905708   2.42416 C.2        1 UNL1     0.0115
     6 C         4.67067   -9.425946   2.249357 C.3        1 UNL1     -0.0348
     7 C         6.432441   -7.907138   1.837107 C.2        1 UNL1     0.2441
     8 O         7.409766   -8.214421   2.505643 O.2        1 UNL1     -0.2702
     9 N         6.516069   -7.785797   0.439096 N.am        1 UNL1     -0.2772
     10 C         6.548255   -6.459732   0.073257 C.2        1 UNL1     0.1049
     11 C         5.379547   -5.85021   -0.009354 C.2        1 UNL1     0.0801
     12 C         7.687501   -4.290335   0.576417 C.ar        1 UNL1     0.0753
     13 C         6.37981   -3.718183   0.682219 C.ar        1 UNL1     0.0305
     14 C         5.187563   -4.451491   0.262864 C.2        1 UNL1     0.0924
     15 N         4.136314   -6.360882   0.001283 N.pl3        1 UNL1     -0.3170
     16 C         3.219358   -5.291125   -0.290378 C.3        1 UNL1     0.1275
     17 N         3.922043   -4.047662   0.197225 N.2        1 UNL1     -0.2557
     18 C         3.140073   -5.164895   -1.808759 C.3        1 UNL1     0.0016
     19 C         2.738212   -6.511779   -2.388415 C.3        1 UNL1     0.0026
     20 N         1.451024   -6.897461   -1.826788 N.3        1 UNL1     -0.3018
     21 C         1.41146   -6.985324   -0.365595 C.3        1 UNL1     0.0026
     22 C         1.814008   -5.620412   0.195532 C.3        1 UNL1     0.0016
     23 C         0.839233   -8.007892   -2.529141 C.3        1 UNL1     0.0012
     24 C         1.124884   -9.329863   -1.79938 C.3        1 UNL1     -0.0339
     25 C         0.660611   -9.275347   -0.334616 C.3        1 UNL1     -0.0615
     26 C         0.483446   -10.486262   -2.546427 C.3        1 UNL1     -0.0615
     27 C         8.827517   -3.543415   0.863805 C.ar        1 UNL1     0.1347
     28 C         8.788041   -2.208921   1.226595 C.ar        1 UNL1     0.0342
     29 C         7.487676   -1.680564   1.371697 C.ar        1 UNL1     0.1435
     30 C         6.335421   -2.427103   1.122283 C.ar        1 UNL1     0.0774
     31 O         7.283505   -0.367089   1.612747 O.3        1 UNL1     -0.4436
     32 C         5.920147   -0.135318   1.227505 C.3        1 UNL1     0.3143
     33 C         5.247944   -1.490577   1.314842 C.2        1 UNL1     0.2504
     34 C         9.968411   -1.281169   1.30471 C.3        1 UNL1     -0.0327
     35 O         5.326749   0.690525   2.237016 O.2        1 UNL1     -0.4528
     36 C         2.670437   2.747297   0.470157 C.3        1 UNL1     0.0854
     37 C         1.431265   2.259655   -0.374934 C.3        1 UNL1     0.0236
     38 C         0.013817   2.82855   0.113885 C.3        1 UNL1     0.1131
     39 C         -0.396942   2.709742   1.636853 C.3        1 UNL1     0.0200
     40 C         -0.12301   1.295549   2.477959 C.3        1 UNL1     0.0661
     41 C         -0.552927   -0.263776   1.966797 C.3        1 UNL1     0.0091
     42 C         0.260724   -1.880609   2.265506 C.3        1 UNL1     0.0661
     43 C         7.794353   -5.67902   0.06417 C.2        1 UNL1     0.2131
     44 O         8.806517   -6.136249   -0.435034 O.2        1 UNL1     -0.2851
     45 O         10.059586   -4.188747   0.780194 O.3        1 UNL1     -0.5056
     46 O         4.081281   -1.741248   1.519574 O.2        1 UNL1     -0.2836
     47 C         1.018276   -2.790293   4.656406 C.3        1 UNL1     -0.0566
     48 O         -0.994838   -2.570456   2.648641 O.3        1 UNL1     -0.3909
     49 C         -0.910752   -0.214556   0.498113 C.3        1 UNL1     -0.0577
     50 O         1.17998   1.282453   3.02547 O.3        1 UNL1     -0.3910
     51 O         2.370444   3.471735   1.641748 O.3        1 UNL1     -0.3753
     52 C         1.609382   0.788165   -0.872872 C.3        1 UNL1     -0.0564
     53 O         -1.085781   2.645084   -0.890878 O.3        1 UNL1     -0.4608
     54 C         -1.061763   3.091436   -2.186302 C.2        1 UNL1     0.3042
     55 O         -0.865058   4.241632   -2.576422 O.2        1 UNL1     -0.2512
     56 C         -1.247495   2.000229   -3.201922 C.3        1 UNL1     0.0332
     57 C         -0.009306   4.087981   2.349853 C.3        1 UNL1     -0.0567
     58 C         5.953672   0.310445   -0.252935 C.3        1 UNL1     0.0210
     59 C         3.438754   4.276254   2.139071 C.3        1 UNL1     0.0372
     60 C         3.625989   1.6753   0.861189 C.2        1 UNL1     -0.0208
     61 C         4.222143   1.432604   2.029283 C.2        1 UNL1     0.0882
     62 H         2.248008   -2.351977   2.959362 H        1 UNL1     0.0365
     63 H         3.558546   -3.918093   2.958672 H        1 UNL1     0.0576
     64 H         2.076345   -6.609498   3.195721 H        1 UNL1     0.0615
     65 H         5.082441   -5.866021   2.785249 H        1 UNL1     0.0622
     66 H         3.223728   3.411084   -0.209036 H        1 UNL1     0.0645
     67 H         1.550419   2.771829   -1.345521 H        1 UNL1     0.0362
     68 H         0.176436   3.902942   -0.061494 H        1 UNL1     0.0741
     69 H         -1.468931   2.830412   1.718629 H        1 UNL1     0.0359
     70 H         -0.787049   1.459557   3.348139 H        1 UNL1     0.0600
     71 H         -1.554712   -0.350173   2.431471 H        1 UNL1     0.0348
     72 H         0.645486   -1.200028   3.038864 H        1 UNL1     0.0602
     73 H         3.909901   1.128152   -0.00326 H        1 UNL1     0.0628
     74 H         3.948419   1.90794   2.971815 H        1 UNL1     0.1022
     75 H         5.289517   -10.017903   2.96605 H        1 UNL1     0.0279
     76 H         3.662753   -9.769685   2.470747 H        1 UNL1     0.0279
     77 H         5.028156   -9.812415   1.283672 H        1 UNL1     0.0279
     78 H         5.692404   -8.202114   0.009755 H        1 UNL1     0.1553
     79 H         3.92787   -7.323365   -0.191359 H        1 UNL1     0.1484
     80 H         2.412542   -4.385343   -2.065205 H        1 UNL1     0.0317
     81 H         4.101371   -4.845838   -2.225604 H        1 UNL1     0.0317
     82 H         3.500364   -7.281336   -2.196533 H        1 UNL1     0.0428
     83 H         2.689387   -6.399712   -3.471977 H        1 UNL1     0.0428
     84 H         0.415141   -7.198194   0.034213 H        1 UNL1     0.0428
     85 H         2.031986   -7.810085   0.011278 H        1 UNL1     0.0428
     86 H         1.645945   -5.681808   1.254764 H        1 UNL1     0.0317
     87 H         1.09901   -4.855376   -0.130957 H        1 UNL1     0.0317
     88 H         -0.246383   -7.84521   -2.545486 H        1 UNL1     0.0429
     89 H         1.1736   -8.051913   -3.573667 H        1 UNL1     0.0429
     90 H         2.20391   -9.523815   -1.816685 H        1 UNL1     0.0308
     91 H         1.346526   -8.68286   0.278232 H        1 UNL1     0.0233
     92 H         -0.34304   -8.849698   -0.263088 H        1 UNL1     0.0233
     93 H         0.60403   -10.270508   0.122865 H        1 UNL1     0.0233
     94 H         1.140463   -11.362379   -2.522263 H        1 UNL1     0.0233
     95 H         -0.461853   -10.760536   -2.06983 H        1 UNL1     0.0233
     96 H         0.290064   -10.228056   -3.591368 H        1 UNL1     0.0233
     97 H         9.726562   -0.356637   1.820443 H        1 UNL1     0.0280
     98 H         10.806707   -1.723762   1.85845 H        1 UNL1     0.0280
     99 H         10.308539   -1.030181   0.286666 H        1 UNL1     0.0280
     100 H         10.013605   -5.127645   0.824681 H        1 UNL1     0.2922
     101 H         0.711167   -3.729047   5.116929 H        1 UNL1     0.0236
     102 H         0.263133   -2.013111   4.769234 H        1 UNL1     0.0236
     103 H         1.870068   -2.445073   5.265888 H        1 UNL1     0.0236
     104 H         -1.604147   -2.518887   1.886372 H        1 UNL1     0.2098
     105 H         -1.296528   -1.148974   0.098298 H        1 UNL1     0.0234
     106 H         -1.559816   0.614017   0.215079 H        1 UNL1     0.0234
     107 H         0.0   0.0   0.0 H        1 UNL1     0.0234
     108 H         1.790885   1.588834   2.327835 H        1 UNL1     0.2098
     109 H         0.81406   0.485131   -1.568102 H        1 UNL1     0.0234
     110 H         2.58683   0.604416   -1.331756 H        1 UNL1     0.0234
     111 H         1.566572   0.071674   -0.041755 H        1 UNL1     0.0234
     112 H         -1.588684   2.427948   -4.149547 H        1 UNL1     0.0342
     113 H         -0.34139   1.412739   -3.342178 H        1 UNL1     0.0342
     114 H         -2.030968   1.321776   -2.837182 H        1 UNL1     0.0342
     115 H         0.824979   4.590414   1.84121 H        1 UNL1     0.0234
     116 H         -0.832907   4.801904   2.413462 H        1 UNL1     0.0234
     117 H         0.406934   3.957026   3.363527 H        1 UNL1     0.0234
     118 H         6.580165   1.207304   -0.401788 H        1 UNL1     0.0309
     119 H         6.291403   -0.479046   -0.93179 H        1 UNL1     0.0309
     120 H         4.970542   0.625455   -0.619445 H        1 UNL1     0.0309
     121 H         4.282694   4.16034   1.459597 H        1 UNL1     0.0524
     122 H         3.178503   5.34752   2.165445 H        1 UNL1     0.0524
     123 H         3.716182   3.956084   3.13938 H        1 UNL1     0.0524
@<TRIPOS>BOND
     1     1     2    1
     2     1    42    1
     3     2     3    2
     4     3     4    1
     5     4     5    2
     6     5     7    1
     7     6    75    1
     8     6    76    1
     9     6    77    1
    10     7     9   am
    11     9    10    1
    12    10    11    2
    13    10    43    1
    14    11    14    1
    15    11    15    1
    16    12    13   ar
    17    12    27   ar
    18    12    43    1
    19    13    14    1
    20    13    30   ar
    21    14    17    2
    22    15    16    1
    23    16    17    1
    24    16    18    1
    25    16    22    1
    26    18    19    1
    27    19    20    1
    28    20    21    1
    29    21    22    1
    30    23    24    1
    31    23    88    1
    32    23    89    1
    33    24    25    1
    34    24    26    1
    35    24    90    1
    36    25    91    1
    37    25    92    1
    38    25    93    1
    39    26    94    1
    40    26    95    1
    41    26    96    1
    42    27    28   ar
    43    28    29   ar
    44    29    30   ar
    45    29    31    1
    46    30    33    1
    47    31    32    1
    48    32    33    1
    49    32    35    1
    50    34    97    1
    51    34    98    1
    52    34    99    1
    53    35    61    1
    54    36    37    1
    55    36    60    1
    56    37    38    1
    57    38    39    1
    58    39    40    1
    59    40    41    1
    60    41    42    1
    61    45   100    1
    62    47   101    1
    63    47   102    1
    64    47   103    1
    65    48   104    1
    66    49   105    1
    67    49   106    1
    68    49   107    1
    69    50   108    1
    70    51    59    1
    71    52   109    1
    72    52   110    1
    73    52   111    1
    74    53    54    1
    75    54    55    2
    76    54    56    1
    77    56   112    1
    78    56   113    1
    79    56   114    1
    80    57   115    1
    81    57   116    1
    82    57   117    1
    83    58   118    1
    84    58   119    1
    85    58   120    1
    86    59   121    1
    87    59   122    1
    88    59   123    1
    89    60    61    2
    90     1    47    1
    91     1    62    1
    92     2    63    1
    93     3    64    1
    94     4    65    1
    95     5     6    1
    96     7     8    2
    97     9    78    1
    98    15    79    1
    99    18    80    1
   100    18    81    1
   101    19    82    1
   102    19    83    1
   103    20    23    1
   104    21    84    1
   105    21    85    1
   106    22    86    1
   107    22    87    1
   108    27    45    1
   109    28    34    1
   110    32    58    1
   111    33    46    2
   112    36    51    1
   113    36    66    1
   114    37    52    1
   115    37    67    1
   116    38    53    1
   117    38    68    1
   118    42    48    1
   119    42    72    1
   120    43    44    2
   121    60    73    1
   122    61    74    1
   123    39    69    1
   124    39    57    1
   125    40    70    1
   126    40    50    1
   127    41    71    1
   128    41    49    1
