@<TRIPOS>MOLECULE
*****
 123 128 0 0 0
SMALL
GASTEIGER

@<TRIPOS>ATOM
     1 C         5.164796   1.754384   0.496275 C.3        1 UNL1     0.0009
     2 C         6.601101   2.562934   -0.352437 C.2        1 UNL1     -0.0787
     3 C         7.883532   2.466843   -1.017405 C.2        1 UNL1     -0.0649
     4 C         8.760034   3.703669   -1.771304 C.2        1 UNL1     -0.0542
     5 C         9.780336   3.998348   -2.708975 C.2        1 UNL1     0.0115
     6 C         10.909835   3.374999   -3.574418 C.3        1 UNL1     -0.0348
     7 C         9.874341   5.482259   -3.314087 C.2        1 UNL1     0.2441
     8 O         10.697015   6.304529   -2.935133 O.2        1 UNL1     -0.2702
     9 N         9.12465   5.6894   -4.485072 N.am        1 UNL1     -0.2772
     10 C         7.841277   6.074301   -4.171818 C.2        1 UNL1     0.1049
     11 C         6.996435   5.101639   -3.881314 C.2        1 UNL1     0.0801
     12 C         6.540079   7.678168   -2.760497 C.ar        1 UNL1     0.0753
     13 C         5.782045   6.548966   -2.314521 C.ar        1 UNL1     0.0305
     14 C         5.900927   5.243982   -2.961 C.2        1 UNL1     0.0924
     15 N         7.120713   3.772948   -4.041513 N.pl3        1 UNL1     -0.3170
     16 C         5.851348   3.172014   -3.728712 C.3        1 UNL1     0.1275
     17 N         5.213186   4.125625   -2.748356 N.2        1 UNL1     -0.2557
     18 C         4.999264   3.231222   -4.992892 C.3        1 UNL1     0.0016
     19 C         5.755688   2.549024   -6.121617 C.3        1 UNL1     0.0026
     20 N         6.027185   1.170894   -5.736815 N.3        1 UNL1     -0.3018
     21 C         6.789912   1.01028   -4.49713 C.3        1 UNL1     0.0026
     22 C         6.009622   1.698884   -3.376029 C.3        1 UNL1     0.0016
     23 C         6.47338   0.352871   -6.846947 C.3        1 UNL1     0.0012
     24 C         5.318875   0.102927   -7.830004 C.3        1 UNL1     -0.0339
     25 C         5.354197   1.096168   -9.003154 C.3        1 UNL1     -0.0615
     26 C         5.349977   -1.336102   -8.314781 C.3        1 UNL1     -0.0615
     27 C         6.333582   8.945138   -2.219882 C.ar        1 UNL1     0.1347
     28 C         5.373578   9.212706   -1.260273 C.ar        1 UNL1     0.0342
     29 C         4.673039   8.077025   -0.801318 C.ar        1 UNL1     0.1435
     30 C         4.894312   6.795708   -1.307762 C.ar        1 UNL1     0.0774
     31 O         3.631355   8.188613   0.051588 O.3        1 UNL1     -0.4436
     32 C         2.911212   6.955078   -0.092148 C.3        1 UNL1     0.3143
     33 C         3.926017   5.963633   -0.624518 C.2        1 UNL1     0.2504
     34 C         4.924855   10.577893   -0.818671 C.3        1 UNL1     -0.0327
     35 O         2.550224   6.516783   1.223465 O.2        1 UNL1     -0.4528
     36 C         -0.690303   4.581166   0.822887 C.3        1 UNL1     0.0854
     37 C         -0.99355   3.321026   -0.075786 C.3        1 UNL1     0.0236
     38 C         -1.593146   2.058581   0.710637 C.3        1 UNL1     0.1131
     39 C         -0.867617   1.527336   2.012043 C.3        1 UNL1     0.0200
     40 C         0.793717   1.383694   2.054165 C.3        1 UNL1     0.0661
     41 C         1.754745   0.617024   0.885297 C.3        1 UNL1     0.0091
     42 C         3.462274   0.982075   0.322729 C.3        1 UNL1     0.0661
     43 C         7.491093   7.47257   -3.881016 C.2        1 UNL1     0.2131
     44 O         7.890394   8.371752   -4.598489 O.2        1 UNL1     -0.2851
     45 O         7.144938   9.981599   -2.676925 O.3        1 UNL1     -0.5056
     46 O         3.943326   4.760002   -0.494796 O.2        1 UNL1     -0.2836
     47 C         5.560725   1.324096   1.934355 C.3        1 UNL1     -0.0566
     48 O         3.912431   -0.428578   0.403558 O.3        1 UNL1     -0.3909
     49 C         0.921635   0.384558   -0.355421 C.3        1 UNL1     -0.0577
     50 O         1.392239   2.601908   2.448437 O.3        1 UNL1     -0.3910
     51 O         -0.815072   4.390117   2.21406 O.3        1 UNL1     -0.3753
     52 C         0.051839   3.162792   -1.227772 C.3        1 UNL1     -0.0564
     53 O         -2.193953   1.01969   -0.190509 O.3        1 UNL1     -0.4608
     54 C         -2.425495   -0.288055   0.147309 C.2        1 UNL1     0.3042
     55 O         -1.854496   -1.285339   -0.292263 O.2        1 UNL1     -0.2512
     56 C         -3.464721   -0.457472   1.218766 C.3        1 UNL1     0.0332
     57 C         -1.590241   2.194376   3.27341 C.3        1 UNL1     -0.0567
     58 C         1.836434   7.199872   -1.176794 C.3        1 UNL1     0.0210
     59 C         -1.130123   5.568104   2.954976 C.3        1 UNL1     0.0372
     60 C         0.638108   5.212001   0.593685 C.2        1 UNL1     -0.0208
     61 C         1.549973   5.647532   1.464064 C.2        1 UNL1     0.0882
     62 H         4.687673   2.737925   0.5841 H        1 UNL1     0.0365
     63 H         6.333558   3.61633   -0.246379 H        1 UNL1     0.0576
     64 H         8.342455   1.500721   -1.239006 H        1 UNL1     0.0615
     65 H         8.271662   4.618192   -1.423997 H        1 UNL1     0.0622
     66 H         -1.435622   5.327099   0.512839 H        1 UNL1     0.0645
     67 H         -1.859064   3.629921   -0.687365 H        1 UNL1     0.0362
     68 H         -2.54095   2.494045   1.062147 H        1 UNL1     0.0741
     69 H         -1.198087   0.515682   2.206344 H        1 UNL1     0.0359
     70 H         0.905695   0.722721   2.934868 H        1 UNL1     0.0600
     71 H         1.799242   -0.404464   1.311372 H        1 UNL1     0.0348
     72 H         3.355195   1.469298   1.302761 H        1 UNL1     0.0602
     73 H         0.75644   5.410295   -0.442618 H        1 UNL1     0.0628
     74 H         1.531986   5.43591   2.533704 H        1 UNL1     0.1022
     75 H         10.953429   2.269227   -3.42475 H        1 UNL1     0.0279
     76 H         10.798271   3.461198   -4.652932 H        1 UNL1     0.0279
     77 H         11.91446   3.678137   -3.24497 H        1 UNL1     0.0279
     78 H         9.063998   4.819839   -5.010679 H        1 UNL1     0.1553
     79 H         7.786877   3.346272   -4.658851 H        1 UNL1     0.1484
     80 H         4.03843   2.739001   -4.799803 H        1 UNL1     0.0317
     81 H         4.771623   4.267947   -5.263135 H        1 UNL1     0.0317
     82 H         6.68589   3.081625   -6.368542 H        1 UNL1     0.0428
     83 H         5.131043   2.60422   -7.013706 H        1 UNL1     0.0428
     84 H         6.911247   -0.032801   -4.188793 H        1 UNL1     0.0428
     85 H         7.819642   1.379601   -4.599966 H        1 UNL1     0.0428
     86 H         6.525754   1.448329   -2.467835 H        1 UNL1     0.0317
     87 H         5.030654   1.22   -3.251984 H        1 UNL1     0.0317
     88 H         7.26915   0.896053   -7.373253 H        1 UNL1     0.0429
     89 H         6.906851   -0.592704   -6.496567 H        1 UNL1     0.0429
     90 H         4.365366   0.220432   -7.301585 H        1 UNL1     0.0308
     91 H         6.307768   1.046966   -9.537368 H        1 UNL1     0.0233
     92 H         4.539988   0.895856   -9.703544 H        1 UNL1     0.0233
     93 H         5.226649   2.134844   -8.674949 H        1 UNL1     0.0233
     94 H         4.656178   -1.467647   -9.152143 H        1 UNL1     0.0233
     95 H         6.354005   -1.590529   -8.665717 H        1 UNL1     0.0233
     96 H         5.067344   -2.031345   -7.519341 H        1 UNL1     0.0233
     97 H         4.124812   10.52668   -0.086183 H        1 UNL1     0.0280
     98 H         5.734218   11.14498   -0.340552 H        1 UNL1     0.0280
     99 H         4.559882   11.146137   -1.689871 H        1 UNL1     0.0280
     100 H         6.677251   10.732468   -2.997995 H        1 UNL1     0.2922
     101 H         4.698095   0.889014   2.438566 H        1 UNL1     0.0236
     102 H         6.010197   2.129463   2.514306 H        1 UNL1     0.0236
     103 H         6.31791   0.522309   1.933043 H        1 UNL1     0.0236
     104 H         4.331237   -0.554929   1.277404 H        1 UNL1     0.2098
     105 H         0.708307   1.283638   -0.928097 H        1 UNL1     0.0234
     106 H         1.292361   -0.402464   -1.011993 H        1 UNL1     0.0234
     107 H         0.0   -0.0   0.0 H        1 UNL1     0.0234
     108 H         1.198765   3.258876   1.752212 H        1 UNL1     0.2098
     109 H         1.077997   3.062574   -0.847421 H        1 UNL1     0.0234
     110 H         -0.172536   2.328399   -1.900965 H        1 UNL1     0.0234
     111 H         0.063641   4.040962   -1.887033 H        1 UNL1     0.0234
     112 H         -3.585799   -1.518957   1.455272 H        1 UNL1     0.0342
     113 H         -3.228632   0.117573   2.112874 H        1 UNL1     0.0342
     114 H         -4.423074   -0.087897   0.828717 H        1 UNL1     0.0342
     115 H         -2.659599   1.94482   3.310616 H        1 UNL1     0.0234
     116 H         -1.15407   1.914294   4.234325 H        1 UNL1     0.0234
     117 H         -1.630094   3.296228   3.225709 H        1 UNL1     0.0234
     118 H         0.933908   7.683959   -0.764347 H        1 UNL1     0.0309
     119 H         2.205226   7.790315   -2.021525 H        1 UNL1     0.0309
     120 H         1.450328   6.267866   -1.603871 H        1 UNL1     0.0309
     121 H         -0.309808   6.272346   2.819021 H        1 UNL1     0.0524
     122 H         -2.050258   6.056385   2.593079 H        1 UNL1     0.0524
     123 H         -1.248488   5.329315   4.008097 H        1 UNL1     0.0524
@<TRIPOS>BOND
     1     1     2    1
     2     1    42    1
     3     2     3    2
     4     3     4    1
     5     4     5    2
     6     5     7    1
     7     6    75    1
     8     6    76    1
     9     6    77    1
    10     7     9   am
    11     9    10    1
    12    10    11    2
    13    10    43    1
    14    11    14    1
    15    11    15    1
    16    12    13   ar
    17    12    27   ar
    18    12    43    1
    19    13    14    1
    20    13    30   ar
    21    14    17    2
    22    15    16    1
    23    16    17    1
    24    16    18    1
    25    16    22    1
    26    18    19    1
    27    19    20    1
    28    20    21    1
    29    21    22    1
    30    23    24    1
    31    23    88    1
    32    23    89    1
    33    24    25    1
    34    24    26    1
    35    24    90    1
    36    25    91    1
    37    25    92    1
    38    25    93    1
    39    26    94    1
    40    26    95    1
    41    26    96    1
    42    27    28   ar
    43    28    29   ar
    44    29    30   ar
    45    29    31    1
    46    30    33    1
    47    31    32    1
    48    32    33    1
    49    32    35    1
    50    34    97    1
    51    34    98    1
    52    34    99    1
    53    35    61    1
    54    36    37    1
    55    36    60    1
    56    37    38    1
    57    38    39    1
    58    39    40    1
    59    40    41    1
    60    41    42    1
    61    45   100    1
    62    47   101    1
    63    47   102    1
    64    47   103    1
    65    48   104    1
    66    49   105    1
    67    49   106    1
    68    49   107    1
    69    50   108    1
    70    51    59    1
    71    52   109    1
    72    52   110    1
    73    52   111    1
    74    53    54    1
    75    54    55    2
    76    54    56    1
    77    56   112    1
    78    56   113    1
    79    56   114    1
    80    57   115    1
    81    57   116    1
    82    57   117    1
    83    58   118    1
    84    58   119    1
    85    58   120    1
    86    59   121    1
    87    59   122    1
    88    59   123    1
    89    60    61    2
    90     1    47    1
    91     1    62    1
    92     2    63    1
    93     3    64    1
    94     4    65    1
    95     5     6    1
    96     7     8    2
    97     9    78    1
    98    15    79    1
    99    18    80    1
   100    18    81    1
   101    19    82    1
   102    19    83    1
   103    20    23    1
   104    21    84    1
   105    21    85    1
   106    22    86    1
   107    22    87    1
   108    27    45    1
   109    28    34    1
   110    32    58    1
   111    33    46    2
   112    36    51    1
   113    36    66    1
   114    37    52    1
   115    37    67    1
   116    38    53    1
   117    38    68    1
   118    42    48    1
   119    42    72    1
   120    43    44    2
   121    60    73    1
   122    61    74    1
   123    39    69    1
   124    39    57    1
   125    40    70    1
   126    40    50    1
   127    41    71    1
   128    41    49    1
