@<TRIPOS>MOLECULE
*****
 123 128 0 0 0
SMALL
GASTEIGER

@<TRIPOS>ATOM
     1 C         3.1233   4.477002   -0.461743 C.3        1 UNL1     0.0009
     2 C         4.452581   5.507364   0.318257 C.2        1 UNL1     -0.0787
     3 C         4.856915   6.677186   1.069309 C.2        1 UNL1     -0.0649
     4 C         6.402123   7.061606   1.644557 C.2        1 UNL1     -0.0542
     5 C         7.134082   7.837143   2.577218 C.2        1 UNL1     0.0115
     6 C         7.026227   8.9931   3.609425 C.3        1 UNL1     -0.0348
     7 C         8.648362   7.423339   2.912942 C.2        1 UNL1     0.2441
     8 O         9.616793   8.007163   2.446233 O.2        1 UNL1     -0.2702
     9 N         8.788904   6.517354   3.978583 N.am        1 UNL1     -0.2772
     10 C         8.708633   5.222037   3.521384 C.2        1 UNL1     0.1049
     11 C         7.49119   4.737539   3.356103 C.2        1 UNL1     0.0801
     12 C         9.602633   3.678568   1.767588 C.ar        1 UNL1     0.0753
     13 C         8.241382   3.340013   1.483011 C.ar        1 UNL1     0.0305
     14 C         7.149312   3.760798   2.357868 C.2        1 UNL1     0.0924
     15 N         6.305217   5.225867   3.758012 N.pl3        1 UNL1     -0.3170
     16 C         5.303105   4.232131   3.477804 C.3        1 UNL1     0.1275
     17 N         5.855034   3.459187   2.304921 N.2        1 UNL1     -0.2557
     18 C         5.287216   3.261565   4.654855 C.3        1 UNL1     0.0016
     19 C         5.049018   4.05048   5.932534 C.3        1 UNL1     0.0026
     20 N         3.77973   4.755231   5.817371 N.3        1 UNL1     -0.3018
     21 C         3.676556   5.667823   4.676801 C.3        1 UNL1     0.0026
     22 C         3.914584   4.853503   3.403961 C.3        1 UNL1     0.0016
     23 C         3.315712   5.29145   7.081412 C.3        1 UNL1     0.0012
     24 C         2.873992   4.156249   8.018406 C.3        1 UNL1     -0.0339
     25 C         1.692558   4.585496   8.903853 C.3        1 UNL1     -0.0615
     26 C         2.544469   2.91287   7.210815 C.3        1 UNL1     -0.0615
     27 C         10.647999   3.173637   0.99793 C.ar        1 UNL1     0.1347
     28 C         10.459523   2.293407   -0.052652 C.ar        1 UNL1     0.0342
     29 C         9.107911   2.012817   -0.34519 C.ar        1 UNL1     0.1435
     30 C         8.04846   2.539872   0.394402 C.ar        1 UNL1     0.0774
     31 O         8.763849   1.088482   -1.268355 O.3        1 UNL1     -0.4436
     32 C         7.405106   0.74913   -0.95287 C.3        1 UNL1     0.3143
     33 C         6.865944   1.941858   -0.18938 C.2        1 UNL1     0.2504
     34 C         11.537595   1.518472   -0.757872 C.3        1 UNL1     -0.0327
     35 O         6.684018   0.684701   -2.189451 O.2        1 UNL1     -0.4528
     36 C         3.929252   -1.871569   -1.655745 C.3        1 UNL1     0.0854
     37 C         2.787504   -1.893463   -0.567879 C.3        1 UNL1     0.0236
     38 C         1.298482   -2.003773   -1.15302 C.3        1 UNL1     0.1131
     39 C         0.82635   -1.011054   -2.290505 C.3        1 UNL1     0.0200
     40 C         1.195966   0.613102   -2.201406 C.3        1 UNL1     0.0661
     41 C         0.947377   1.616402   -0.85634 C.3        1 UNL1     0.0091
     42 C         1.900265   3.06664   -0.261179 C.3        1 UNL1     0.0661
     43 C         9.870819   4.513776   2.964569 C.2        1 UNL1     0.2131
     44 O         10.946556   4.548033   3.53409 O.2        1 UNL1     -0.2851
     45 O         11.940184   3.588679   1.313264 O.3        1 UNL1     -0.5056
     46 O         5.720875   2.325128   -0.101201 O.2        1 UNL1     -0.2836
     47 C         2.624056   5.142852   -1.772232 C.3        1 UNL1     -0.0566
     48 O         0.70118   3.915845   -0.060778 O.3        1 UNL1     -0.3909
     49 C         0.659752   0.751835   0.350842 C.3        1 UNL1     -0.0577
     50 O         2.465153   0.87005   -2.767857 O.3        1 UNL1     -0.3910
     51 O         3.501716   -1.775415   -2.99567 O.3        1 UNL1     -0.3753
     52 C         3.133954   -0.986094   0.65752 C.3        1 UNL1     -0.0564
     53 O         0.273465   -2.373175   -0.120931 O.3        1 UNL1     -0.4608
     54 C         -1.005806   -1.885559   -0.060718 C.2        1 UNL1     0.3042
     55 O         -1.437383   -1.01156   0.690086 O.2        1 UNL1     -0.2512
     56 C         -1.926055   -2.483008   -1.086832 C.3        1 UNL1     0.0332
     57 C         1.040711   -1.748311   -3.6936 C.3        1 UNL1     -0.0567
     58 C         7.468035   -0.466667   0.00076 C.3        1 UNL1     0.0210
     59 C         3.651567   -2.970969   -3.759908 C.3        1 UNL1     0.0372
     60 C         4.965015   -0.82098   -1.459229 C.2        1 UNL1     -0.0208
     61 C         5.52346   0.016712   -2.333962 C.2        1 UNL1     0.0882
     62 H         3.887391   3.74636   -0.753355 H        1 UNL1     0.0365
     63 H         5.344009   4.957355   0.009524 H        1 UNL1     0.0576
     64 H         4.123754   7.370189   1.488031 H        1 UNL1     0.0615
     65 H         7.058804   6.370076   1.109729 H        1 UNL1     0.0622
     66 H         4.447591   -2.832752   -1.531248 H        1 UNL1     0.0645
     67 H         2.903715   -2.875345   -0.076999 H        1 UNL1     0.0362
     68 H         1.36315   -2.990912   -1.635613 H        1 UNL1     0.0741
     69 H         -0.25504   -1.00676   -2.321901 H        1 UNL1     0.0359
     70 H         0.476668   1.013229   -2.941385 H        1 UNL1     0.0600
     71 H         -0.062868   2.006029   -1.08991 H        1 UNL1     0.0348
     72 H         2.177387   2.934297   -1.317116 H        1 UNL1     0.0602
     73 H         5.343896   -0.884874   -0.469474 H        1 UNL1     0.0628
     74 H         5.157894   0.183578   -3.347744 H        1 UNL1     0.1022
     75 H         6.472228   9.858571   3.172298 H        1 UNL1     0.0279
     76 H         6.459072   8.78458   4.513817 H        1 UNL1     0.0279
     77 H         7.999546   9.451661   3.837621 H        1 UNL1     0.0279
     78 H         8.032494   6.654123   4.645828 H        1 UNL1     0.1553
     79 H         6.202255   5.912702   4.482297 H        1 UNL1     0.1484
     80 H         4.50017   2.515306   4.492304 H        1 UNL1     0.0317
     81 H         6.231967   2.711378   4.721127 H        1 UNL1     0.0317
     82 H         5.872695   4.749703   6.138822 H        1 UNL1     0.0428
     83 H         5.043226   3.339483   6.759275 H        1 UNL1     0.0428
     84 H         2.6874   6.123283   4.567545 H        1 UNL1     0.0428
     85 H         4.35572   6.525738   4.776974 H        1 UNL1     0.0428
     86 H         3.701032   5.52045   2.589366 H        1 UNL1     0.0317
     87 H         3.144897   4.078248   3.305688 H        1 UNL1     0.0317
     88 H         4.150095   5.828064   7.551673 H        1 UNL1     0.0429
     89 H         2.507821   6.019543   6.933199 H        1 UNL1     0.0429
     90 H         3.713452   3.878517   8.666777 H        1 UNL1     0.0308
     91 H         0.921792   5.095923   8.318631 H        1 UNL1     0.0233
     92 H         1.249731   3.720486   9.403123 H        1 UNL1     0.0233
     93 H         1.996596   5.275665   9.700135 H        1 UNL1     0.0233
     94 H         1.882358   2.254784   7.783849 H        1 UNL1     0.0233
     95 H         2.026596   3.192406   6.289062 H        1 UNL1     0.0233
     96 H         3.448138   2.353808   6.952357 H        1 UNL1     0.0233
     97 H         11.408822   0.446137   -0.644983 H        1 UNL1     0.0280
     98 H         11.543753   1.708236   -1.839172 H        1 UNL1     0.0280
     99 H         12.521243   1.793906   -0.343544 H        1 UNL1     0.0280
     100 H         12.039809   4.51946   1.40993 H        1 UNL1     0.2922
     101 H         3.028453   4.609994   -2.63257 H        1 UNL1     0.0236
     102 H         2.83377   6.211021   -1.817173 H        1 UNL1     0.0236
     103 H         1.529672   5.066357   -1.884765 H        1 UNL1     0.0236
     104 H         -0.085386   3.355633   -0.210607 H        1 UNL1     0.2098
     105 H         1.533907   0.258836   0.768713 H        1 UNL1     0.0234
     106 H         0.091285   1.245088   1.139178 H        1 UNL1     0.0234
     107 H         -0.0   0.0   0.0 H        1 UNL1     0.0234
     108 H         2.729929   1.768377   -2.490964 H        1 UNL1     0.2098
     109 H         4.050754   -1.310506   1.169328 H        1 UNL1     0.0234
     110 H         3.215022   0.074978   0.398103 H        1 UNL1     0.0234
     111 H         2.342792   -1.014374   1.418578 H        1 UNL1     0.0234
     112 H         -2.921512   -2.037376   -0.998384 H        1 UNL1     0.0342
     113 H         -1.53761   -2.373909   -2.098292 H        1 UNL1     0.0342
     114 H         -2.018763   -3.558089   -0.880024 H        1 UNL1     0.0342
     115 H         0.268636   -1.469166   -4.423782 H        1 UNL1     0.0234
     116 H         2.012197   -1.554981   -4.152826 H        1 UNL1     0.0234
     117 H         0.899914   -2.841683   -3.642069 H        1 UNL1     0.0234
     118 H         7.102233   -1.390514   -0.480595 H        1 UNL1     0.0309
     119 H         8.470034   -0.645292   0.403614 H        1 UNL1     0.0309
     120 H         6.807969   -0.355312   0.867951 H        1 UNL1     0.0309
     121 H         3.742642   -2.683655   -4.807053 H        1 UNL1     0.0524
     122 H         4.562792   -3.529566   -3.488476 H        1 UNL1     0.0524
     123 H         2.788396   -3.615937   -3.621898 H        1 UNL1     0.0524
@<TRIPOS>BOND
     1     1     2    1
     2     1    42    1
     3     2     3    2
     4     3     4    1
     5     4     5    2
     6     5     7    1
     7     6    75    1
     8     6    76    1
     9     6    77    1
    10     7     9   am
    11     9    10    1
    12    10    11    2
    13    10    43    1
    14    11    14    1
    15    11    15    1
    16    12    13   ar
    17    12    27   ar
    18    12    43    1
    19    13    14    1
    20    13    30   ar
    21    14    17    2
    22    15    16    1
    23    16    17    1
    24    16    18    1
    25    16    22    1
    26    18    19    1
    27    19    20    1
    28    20    21    1
    29    21    22    1
    30    23    24    1
    31    23    88    1
    32    23    89    1
    33    24    25    1
    34    24    26    1
    35    24    90    1
    36    25    91    1
    37    25    92    1
    38    25    93    1
    39    26    94    1
    40    26    95    1
    41    26    96    1
    42    27    28   ar
    43    28    29   ar
    44    29    30   ar
    45    29    31    1
    46    30    33    1
    47    31    32    1
    48    32    33    1
    49    32    35    1
    50    34    97    1
    51    34    98    1
    52    34    99    1
    53    35    61    1
    54    36    37    1
    55    36    60    1
    56    37    38    1
    57    38    39    1
    58    39    40    1
    59    40    41    1
    60    41    42    1
    61    45   100    1
    62    47   101    1
    63    47   102    1
    64    47   103    1
    65    48   104    1
    66    49   105    1
    67    49   106    1
    68    49   107    1
    69    50   108    1
    70    51    59    1
    71    52   109    1
    72    52   110    1
    73    52   111    1
    74    53    54    1
    75    54    55    2
    76    54    56    1
    77    56   112    1
    78    56   113    1
    79    56   114    1
    80    57   115    1
    81    57   116    1
    82    57   117    1
    83    58   118    1
    84    58   119    1
    85    58   120    1
    86    59   121    1
    87    59   122    1
    88    59   123    1
    89    60    61    2
    90     1    47    1
    91     1    62    1
    92     2    63    1
    93     3    64    1
    94     4    65    1
    95     5     6    1
    96     7     8    2
    97     9    78    1
    98    15    79    1
    99    18    80    1
   100    18    81    1
   101    19    82    1
   102    19    83    1
   103    20    23    1
   104    21    84    1
   105    21    85    1
   106    22    86    1
   107    22    87    1
   108    27    45    1
   109    28    34    1
   110    32    58    1
   111    33    46    2
   112    36    51    1
   113    36    66    1
   114    37    52    1
   115    37    67    1
   116    38    53    1
   117    38    68    1
   118    42    48    1
   119    42    72    1
   120    43    44    2
   121    60    73    1
   122    61    74    1
   123    39    69    1
   124    39    57    1
   125    40    70    1
   126    40    50    1
   127    41    71    1
   128    41    49    1
