@<TRIPOS>MOLECULE
*****
 123 128 0 0 0
SMALL
GASTEIGER

@<TRIPOS>ATOM
     1 C         5.131901   1.841559   0.532927 C.3        1 UNL1     0.0009
     2 C         6.545094   2.707572   -0.297701 C.2        1 UNL1     -0.0787
     3 C         7.829858   2.661361   -0.963503 C.2        1 UNL1     -0.0649
     4 C         8.671414   3.937696   -1.690902 C.2        1 UNL1     -0.0542
     5 C         9.683228   4.280311   -2.621453 C.2        1 UNL1     0.0115
     6 C         10.829979   3.707028   -3.49874 C.3        1 UNL1     -0.0348
     7 C         9.735622   5.778512   -3.195594 C.2        1 UNL1     0.2441
     8 O         10.534784   6.615528   -2.799022 O.2        1 UNL1     -0.2702
     9 N         8.980651   5.988762   -4.362627 N.am        1 UNL1     -0.2772
     10 C         7.686903   6.330877   -4.042476 C.2        1 UNL1     0.1049
     11 C         6.869667   5.329048   -3.77287 C.2        1 UNL1     0.0801
     12 C         6.340852   7.867932   -2.599236 C.ar        1 UNL1     0.0753
     13 C         5.614757   6.708872   -2.177368 C.ar        1 UNL1     0.0305
     14 C         5.7704   5.421436   -2.85067 C.2        1 UNL1     0.0924
     15 N         7.031268   4.007983   -3.960484 N.pl3        1 UNL1     -0.3170
     16 C         5.779226   3.365268   -3.661215 C.3        1 UNL1     0.1275
     17 N         5.114314   4.28003   -2.661804 N.2        1 UNL1     -0.2557
     18 C         4.92608   3.426731   -4.92457 C.3        1 UNL1     0.0016
     19 C         5.701611   2.789617   -6.066597 C.3        1 UNL1     0.0026
     20 N         6.011649   1.41197   -5.710236 N.3        1 UNL1     -0.3018
     21 C         6.778329   1.24716   -4.473544 C.3        1 UNL1     0.0026
     22 C         5.978762   1.890165   -3.339026 C.3        1 UNL1     0.0016
     23 C         6.480888   0.630013   -6.836736 C.3        1 UNL1     0.0012
     24 C         5.334068   0.368185   -7.825678 C.3        1 UNL1     -0.0339
     25 C         5.678864   0.878436   -9.234513 C.3        1 UNL1     -0.0615
     26 C         4.98305   -1.109463   -7.836689 C.3        1 UNL1     -0.0615
     27 C         6.09872   9.117112   -2.032632 C.ar        1 UNL1     0.1347
     28 C         5.131375   9.33764   -1.068443 C.ar        1 UNL1     0.0342
     29 C         4.462932   8.173451   -0.633688 C.ar        1 UNL1     0.1435
     30 C         4.720231   6.909639   -1.166413 C.ar        1 UNL1     0.0774
     31 O         3.418345   8.238013   0.220524 O.3        1 UNL1     -0.4436
     32 C         2.733181   6.987983   0.050673 C.3        1 UNL1     0.3143
     33 C         3.775558   6.036695   -0.501335 C.2        1 UNL1     0.2504
     34 C         4.644373   10.680227   -0.598987 C.3        1 UNL1     -0.0327
     35 O         2.384377   6.512519   1.35663 O.2        1 UNL1     -0.4528
     36 C         -0.800391   4.495363   0.91344 C.3        1 UNL1     0.0854
     37 C         -1.067919   3.246118   -0.011406 C.3        1 UNL1     0.0236
     38 C         -1.631965   1.951283   0.748198 C.3        1 UNL1     0.1131
     39 C         -0.892066   1.413743   2.038883 C.3        1 UNL1     0.0200
     40 C         0.772639   1.315984   2.079335 C.3        1 UNL1     0.0661
     41 C         1.755076   0.601029   0.895584 C.3        1 UNL1     0.0091
     42 C         3.451791   1.025496   0.342057 C.3        1 UNL1     0.0661
     43 C         7.297502   7.712423   -3.723023 C.2        1 UNL1     0.2131
     44 O         7.671528   8.637159   -4.421383 O.2        1 UNL1     -0.2851
     45 O         6.880725   10.185216   -2.467445 O.3        1 UNL1     -0.5056
     46 O         3.826657   4.831593   -0.396582 O.2        1 UNL1     -0.2836
     47 C         5.539464   1.39282   1.96209 C.3        1 UNL1     -0.0566
     48 O         3.941395   -0.373328   0.393978 O.3        1 UNL1     -0.3909
     49 C         0.929088   0.371043   -0.350347 C.3        1 UNL1     -0.0577
     50 O         1.336608   2.542088   2.499253 O.3        1 UNL1     -0.3910
     51 O         -0.920034   4.272063   2.300254 O.3        1 UNL1     -0.3753
     52 C         -0.018255   3.141247   -1.165598 C.3        1 UNL1     -0.0564
     53 O         -2.203152   0.914845   -0.174769 O.3        1 UNL1     -0.4608
     54 C         -2.368058   -0.412221   0.124614 C.2        1 UNL1     0.3042
     55 O         -1.665409   -1.353433   -0.241778 O.2        1 UNL1     -0.2512
     56 C         -3.518888   -0.681019   1.052004 C.3        1 UNL1     0.0332
     57 C         -1.633414   2.033907   3.313236 C.3        1 UNL1     -0.0567
     58 C         1.652175   7.224938   -1.029515 C.3        1 UNL1     0.0210
     59 C         -1.268218   5.425109   3.065184 C.3        1 UNL1     0.0372
     60 C         0.509815   5.167885   0.698419 C.2        1 UNL1     -0.0208
     61 C         1.408899   5.610708   1.578362 C.2        1 UNL1     0.0882
     62 H         4.627308   2.809275   0.640747 H        1 UNL1     0.0365
     63 H         6.248032   3.750609   -0.170037 H        1 UNL1     0.0576
     64 H         8.315796   1.713318   -1.204724 H        1 UNL1     0.0615
     65 H         8.157463   4.830737   -1.325095 H        1 UNL1     0.0622
     66 H         -1.566314   5.226336   0.618334 H        1 UNL1     0.0645
     67 H         -1.941643   3.543199   -0.617135 H        1 UNL1     0.0362
     68 H         -2.591707   2.352564   1.10791 H        1 UNL1     0.0741
     69 H         -1.194018   0.389392   2.211906 H        1 UNL1     0.0359
     70 H         0.902963   0.640288   2.946232 H        1 UNL1     0.0600
     71 H         1.828172   -0.427426   1.300423 H        1 UNL1     0.0348
     72 H         3.330857   1.48908   1.331895 H        1 UNL1     0.0602
     73 H         0.622744   5.390883   -0.333457 H        1 UNL1     0.0628
     74 H         1.396642   5.376518   2.64337 H        1 UNL1     0.1022
     75 H         10.855754   2.592674   -3.431024 H        1 UNL1     0.0279
     76 H         10.751144   3.874829   -4.570512 H        1 UNL1     0.0279
     77 H         11.828113   3.970432   -3.119204 H        1 UNL1     0.0279
     78 H         8.944569   5.128933   -4.906197 H        1 UNL1     0.1553
     79 H         7.709288   3.613088   -4.586008 H        1 UNL1     0.1484
     80 H         3.979417   2.903813   -4.742489 H        1 UNL1     0.0317
     81 H         4.669451   4.462036   -5.17344 H        1 UNL1     0.0317
     82 H         6.616531   3.353146   -6.30169 H        1 UNL1     0.0428
     83 H         5.075849   2.84574   -6.957844 H        1 UNL1     0.0428
     84 H         6.928864   0.201726   -4.186804 H        1 UNL1     0.0428
     85 H         7.797295   1.647315   -4.567885 H        1 UNL1     0.0428
     86 H         6.501542   1.635419   -2.435813 H        1 UNL1     0.0317
     87 H         5.013612   1.381499   -3.225712 H        1 UNL1     0.0317
     88 H         7.261189   1.206137   -7.351037 H        1 UNL1     0.0429
     89 H         6.940686   -0.310078   -6.505693 H        1 UNL1     0.0429
     90 H         4.43349   0.887384   -7.476957 H        1 UNL1     0.0308
     91 H         6.688862   0.578846   -9.529897 H        1 UNL1     0.0233
     92 H         4.96345   0.499839   -9.968308 H        1 UNL1     0.0233
     93 H         5.638347   1.972217   -9.304064 H        1 UNL1     0.0233
     94 H         4.3863   -1.349317   -8.723366 H        1 UNL1     0.0233
     95 H         5.896205   -1.710163   -7.872306 H        1 UNL1     0.0233
     96 H         4.410289   -1.390184   -6.948371 H        1 UNL1     0.0233
     97 H         3.797698   10.59353   0.075443 H        1 UNL1     0.0280
     98 H         5.415965   11.229313   -0.043644 H        1 UNL1     0.0280
     99 H         4.334155   11.284505   -1.467151 H        1 UNL1     0.0280
     100 H         6.394606   10.955318   -2.704622 H        1 UNL1     0.2922
     101 H         4.663175   1.026092   2.49621 H        1 UNL1     0.0236
     102 H         6.064837   2.166618   2.520841 H        1 UNL1     0.0236
     103 H         6.235099   0.537256   1.94492 H        1 UNL1     0.0236
     104 H         4.276382   -0.535229   1.297605 H        1 UNL1     0.2098
     105 H         0.731379   1.26908   -0.930219 H        1 UNL1     0.0234
     106 H         1.295346   -0.424525   -0.99908 H        1 UNL1     0.0234
     107 H         0.0   -0.0   0.0 H        1 UNL1     0.0234
     108 H         1.173945   3.194042   1.790546 H        1 UNL1     0.2098
     109 H         1.010234   3.062026   -0.786593 H        1 UNL1     0.0234
     110 H         -0.218953   2.315028   -1.856123 H        1 UNL1     0.0234
     111 H         -0.030999   4.032891   -1.806499 H        1 UNL1     0.0234
     112 H         -3.581816   -1.752221   1.266273 H        1 UNL1     0.0342
     113 H         -3.447625   -0.102152   1.971612 H        1 UNL1     0.0342
     114 H         -4.446259   -0.384347   0.542953 H        1 UNL1     0.0342
     115 H         -2.716795   1.8534   3.283411 H        1 UNL1     0.0234
     116 H         -1.263887   1.656817   4.268905 H        1 UNL1     0.0234
     117 H         -1.601949   3.136543   3.347075 H        1 UNL1     0.0234
     118 H         0.638657   7.284715   -0.595678 H        1 UNL1     0.0309
     119 H         1.836715   8.119281   -1.633086 H        1 UNL1     0.0309
     120 H         1.575312   6.392142   -1.73708 H        1 UNL1     0.0309
     121 H         -0.892651   5.275234   4.077035 H        1 UNL1     0.0524
     122 H         -0.80356   6.344376   2.671385 H        1 UNL1     0.0524
     123 H         -2.346743   5.554066   3.080944 H        1 UNL1     0.0524
@<TRIPOS>BOND
     1     1     2    1
     2     1    42    1
     3     2     3    2
     4     3     4    1
     5     4     5    2
     6     5     7    1
     7     6    75    1
     8     6    76    1
     9     6    77    1
    10     7     9   am
    11     9    10    1
    12    10    11    2
    13    10    43    1
    14    11    14    1
    15    11    15    1
    16    12    13   ar
    17    12    27   ar
    18    12    43    1
    19    13    14    1
    20    13    30   ar
    21    14    17    2
    22    15    16    1
    23    16    17    1
    24    16    18    1
    25    16    22    1
    26    18    19    1
    27    19    20    1
    28    20    21    1
    29    21    22    1
    30    23    24    1
    31    23    88    1
    32    23    89    1
    33    24    25    1
    34    24    26    1
    35    24    90    1
    36    25    91    1
    37    25    92    1
    38    25    93    1
    39    26    94    1
    40    26    95    1
    41    26    96    1
    42    27    28   ar
    43    28    29   ar
    44    29    30   ar
    45    29    31    1
    46    30    33    1
    47    31    32    1
    48    32    33    1
    49    32    35    1
    50    34    97    1
    51    34    98    1
    52    34    99    1
    53    35    61    1
    54    36    37    1
    55    36    60    1
    56    37    38    1
    57    38    39    1
    58    39    40    1
    59    40    41    1
    60    41    42    1
    61    45   100    1
    62    47   101    1
    63    47   102    1
    64    47   103    1
    65    48   104    1
    66    49   105    1
    67    49   106    1
    68    49   107    1
    69    50   108    1
    70    51    59    1
    71    52   109    1
    72    52   110    1
    73    52   111    1
    74    53    54    1
    75    54    55    2
    76    54    56    1
    77    56   112    1
    78    56   113    1
    79    56   114    1
    80    57   115    1
    81    57   116    1
    82    57   117    1
    83    58   118    1
    84    58   119    1
    85    58   120    1
    86    59   121    1
    87    59   122    1
    88    59   123    1
    89    60    61    2
    90     1    47    1
    91     1    62    1
    92     2    63    1
    93     3    64    1
    94     4    65    1
    95     5     6    1
    96     7     8    2
    97     9    78    1
    98    15    79    1
    99    18    80    1
   100    18    81    1
   101    19    82    1
   102    19    83    1
   103    20    23    1
   104    21    84    1
   105    21    85    1
   106    22    86    1
   107    22    87    1
   108    27    45    1
   109    28    34    1
   110    32    58    1
   111    33    46    2
   112    36    51    1
   113    36    66    1
   114    37    52    1
   115    37    67    1
   116    38    53    1
   117    38    68    1
   118    42    48    1
   119    42    72    1
   120    43    44    2
   121    60    73    1
   122    61    74    1
   123    39    69    1
   124    39    57    1
   125    40    70    1
   126    40    50    1
   127    41    71    1
   128    41    49    1
