@<TRIPOS>MOLECULE
*****
 123 128 0 0 0
SMALL
GASTEIGER

@<TRIPOS>ATOM
     1 C         5.027104   2.035081   0.773577 C.3        1 UNL1     0.0009
     2 C         6.494719   2.841828   -0.021598 C.2        1 UNL1     -0.0787
     3 C         7.83583   2.757451   -0.560437 C.2        1 UNL1     -0.0649
     4 C         8.717414   3.967115   -1.351564 C.2        1 UNL1     -0.0542
     5 C         9.804057   4.231336   -2.221318 C.2        1 UNL1     0.0115
     6 C         11.036719   3.595704   -2.921201 C.3        1 UNL1     -0.0348
     7 C         9.881854   5.656187   -2.956667 C.2        1 UNL1     0.2441
     8 O         10.625941   6.554943   -2.589112 O.2        1 UNL1     -0.2702
     9 N         9.233585   5.712048   -4.202772 N.am        1 UNL1     -0.2772
     10 C         7.909925   6.051123   -4.04068 C.2        1 UNL1     0.1049
     11 C         7.089637   5.063217   -3.731825 C.2        1 UNL1     0.0801
     12 C         6.409422   7.702097   -2.909262 C.ar        1 UNL1     0.0753
     13 C         5.668733   6.577773   -2.423584 C.ar        1 UNL1     0.0305
     14 C         5.908822   5.227623   -2.928068 C.2        1 UNL1     0.0924
     15 N         7.291656   3.734559   -3.751388 N.pl3        1 UNL1     -0.3170
     16 C         6.029251   3.094309   -3.493188 C.3        1 UNL1     0.1275
     17 N         5.258917   4.096571   -2.6687 N.2        1 UNL1     -0.2557
     18 C         5.294777   2.988747   -4.826269 C.3        1 UNL1     0.0016
     19 C         6.183321   2.249329   -5.813862 C.3        1 UNL1     0.0026
     20 N         6.484186   0.929986   -5.275494 N.3        1 UNL1     -0.3018
     21 C         7.136892   0.927438   -3.964641 C.3        1 UNL1     0.0026
     22 C         6.225001   1.671177   -2.987296 C.3        1 UNL1     0.0016
     23 C         7.068976   0.039745   -6.258416 C.3        1 UNL1     0.0012
     24 C         6.022761   -0.364351   -7.309081 C.3        1 UNL1     -0.0339
     25 C         6.248038   -1.802995   -7.802651 C.3        1 UNL1     -0.0615
     26 C         4.623348   -0.178238   -6.748916 C.3        1 UNL1     -0.0615
     27 C         6.093715   8.999769   -2.513666 C.ar        1 UNL1     0.1347
     28 C         5.038069   9.299929   -1.671308 C.ar        1 UNL1     0.0342
     29 C         4.353689   8.173603   -1.16715 C.ar        1 UNL1     0.1435
     30 C         4.681649   6.865646   -1.526195 C.ar        1 UNL1     0.0774
     31 O         3.234063   8.304265   -0.422588 O.3        1 UNL1     -0.4436
     32 C         2.59012   7.024081   -0.508252 C.3        1 UNL1     0.3143
     33 C         3.695828   6.046687   -0.85223 C.2        1 UNL1     0.2504
     34 C         4.485801   10.672465   -1.40439 C.3        1 UNL1     -0.0327
     35 O         2.131498   6.689064   0.807302 O.2        1 UNL1     -0.4528
     36 C         -0.962091   4.545064   0.316327 C.3        1 UNL1     0.0854
     37 C         -1.1209   3.192469   -0.479154 C.3        1 UNL1     0.0236
     38 C         -1.728816   1.975952   0.37071 C.3        1 UNL1     0.1131
     39 C         -1.10099   1.608522   1.77538 C.3        1 UNL1     0.0200
     40 C         0.554458   1.563327   1.975096 C.3        1 UNL1     0.0661
     41 C         1.654239   0.747779   0.97361 C.3        1 UNL1     0.0091
     42 C         3.386665   1.155258   0.528565 C.3        1 UNL1     0.0661
     43 C         7.467902   7.448229   -3.917939 C.2        1 UNL1     0.2131
     44 O         7.887701   8.29865   -4.681673 O.2        1 UNL1     -0.2851
     45 O         6.892901   10.033885   -2.996722 O.3        1 UNL1     -0.5056
     46 O         3.758881   4.863006   -0.605698 O.2        1 UNL1     -0.2836
     47 C         5.309729   1.762001   2.27542 C.3        1 UNL1     -0.0566
     48 O         3.894654   -0.214315   0.784174 O.3        1 UNL1     -0.3909
     49 C         0.950475   0.355478   -0.306354 C.3        1 UNL1     -0.0577
     50 O         1.055203   2.844477   2.300107 O.3        1 UNL1     -0.3910
     51 O         -1.204545   4.47613   1.703372 O.3        1 UNL1     -0.3753
     52 C         0.032062   2.988114   -1.51543 C.3        1 UNL1     -0.0564
     53 O         -2.193974   0.826298   -0.474424 O.3        1 UNL1     -0.4608
     54 C         -2.073571   -0.499467   -0.149183 C.2        1 UNL1     0.3042
     55 O         -1.093727   -1.063359   0.336377 O.2        1 UNL1     -0.2512
     56 C         -3.328198   -1.292174   -0.382077 C.3        1 UNL1     0.0332
     57 C         -1.967348   2.346986   2.898889 C.3        1 UNL1     -0.0567
     58 C         1.608788   7.106979   -1.70058 C.3        1 UNL1     0.0210
     59 C         -2.498569   4.920286   2.108459 C.3        1 UNL1     0.0372
     60 C         0.349946   5.226065   0.143245 C.2        1 UNL1     -0.0208
     61 C         1.15625   5.790603   1.043198 C.2        1 UNL1     0.0882
     62 H         4.49732   2.994038   0.724164 H        1 UNL1     0.0365
     63 H         6.168369   3.883735   -0.041515 H        1 UNL1     0.0576
     64 H         8.358938   1.802472   -0.646929 H        1 UNL1     0.0615
     65 H         8.155966   4.880705   -1.137994 H        1 UNL1     0.0622
     66 H         -1.710767   5.216052   -0.127865 H        1 UNL1     0.0645
     67 H         -1.940527   3.394439   -1.190477 H        1 UNL1     0.0362
     68 H         -2.724641   2.387749   0.59494 H        1 UNL1     0.0741
     69 H         -1.398978   0.602018   2.037221 H        1 UNL1     0.0359
     70 H         0.616809   0.993591   2.921971 H        1 UNL1     0.0600
     71 H         1.708434   -0.226014   1.498726 H        1 UNL1     0.0348
     72 H         3.166961   1.72379   1.443889 H        1 UNL1     0.0602
     73 H         0.553122   5.3345   -0.893196 H        1 UNL1     0.0628
     74 H         1.050464   5.677649   2.122683 H        1 UNL1     0.1022
     75 H         11.076209   2.497229   -2.724153 H        1 UNL1     0.0279
     76 H         11.053725   3.639531   -4.007875 H        1 UNL1     0.0279
     77 H         11.99084   3.928326   -2.486787 H        1 UNL1     0.0279
     78 H         9.263141   4.795772   -4.645086 H        1 UNL1     0.1553
     79 H         8.031296   3.291143   -4.264466 H        1 UNL1     0.1484
     80 H         4.345006   2.462964   -4.670527 H        1 UNL1     0.0317
     81 H         5.043406   3.981698   -5.214227 H        1 UNL1     0.0317
     82 H         7.105622   2.808572   -6.029546 H        1 UNL1     0.0428
     83 H         5.641151   2.186856   -6.757896 H        1 UNL1     0.0428
     84 H         7.27934   -0.074323   -3.547515 H        1 UNL1     0.0428
     85 H         8.15281   1.343233   -4.013034 H        1 UNL1     0.0428
     86 H         6.667134   1.534793   -2.017809 H        1 UNL1     0.0317
     87 H         5.262882   1.151276   -2.902876 H        1 UNL1     0.0317
     88 H         7.882667   0.57621   -6.763794 H        1 UNL1     0.0429
     89 H         7.513355   -0.8436   -5.781968 H        1 UNL1     0.0429
     90 H         6.094652   0.314472   -8.167127 H        1 UNL1     0.0308
     91 H         7.171842   -1.884217   -8.383248 H        1 UNL1     0.0233
     92 H         6.291316   -2.497913   -6.960734 H        1 UNL1     0.0233
     93 H         5.434489   -2.155199   -8.448348 H        1 UNL1     0.0233
     94 H         4.671294   0.295507   -5.762456 H        1 UNL1     0.0233
     95 H         4.040793   0.472223   -7.407317 H        1 UNL1     0.0233
     96 H         4.103457   -1.135041   -6.647865 H        1 UNL1     0.0233
     97 H         5.22842   11.448567   -1.563808 H        1 UNL1     0.0280
     98 H         3.647339   10.917675   -2.069303 H        1 UNL1     0.0280
     99 H         4.140083   10.734384   -0.359526 H        1 UNL1     0.0280
     100 H         7.81816   9.890761   -2.901667 H        1 UNL1     0.2922
     101 H         5.988318   0.914944   2.373743 H        1 UNL1     0.0236
     102 H         4.403166   1.630385   2.86517 H        1 UNL1     0.0236
     103 H         5.838597   2.601598   2.756635 H        1 UNL1     0.0236
     104 H         3.123425   -0.785181   0.969343 H        1 UNL1     0.2098
     105 H         0.790651   1.176472   -1.000787 H        1 UNL1     0.0234
     106 H         1.389101   -0.497378   -0.824207 H        1 UNL1     0.0234
     107 H         0.0   -0.0   0.0 H        1 UNL1     0.0234
     108 H         2.024132   2.815969   2.181234 H        1 UNL1     0.2098
     109 H         -0.240594   2.274896   -2.305803 H        1 UNL1     0.0234
     110 H         0.374063   3.924616   -1.969019 H        1 UNL1     0.0234
     111 H         0.933551   2.576847   -1.042015 H        1 UNL1     0.0234
     112 H         -3.991425   -1.202067   0.483577 H        1 UNL1     0.0342
     113 H         -3.837392   -0.993527   -1.297159 H        1 UNL1     0.0342
     114 H         -3.051228   -2.350366   -0.485429 H        1 UNL1     0.0342
     115 H         -2.032591   1.752611   3.820653 H        1 UNL1     0.0234
     116 H         -1.591369   3.335156   3.171301 H        1 UNL1     0.0234
     117 H         -3.034126   2.449252   2.635321 H        1 UNL1     0.0234
     118 H         2.102782   6.877155   -2.66087 H        1 UNL1     0.0309
     119 H         0.734578   6.458733   -1.583371 H        1 UNL1     0.0309
     120 H         1.217689   8.118784   -1.853543 H        1 UNL1     0.0309
     121 H         -2.474415   6.008748   2.153451 H        1 UNL1     0.0524
     122 H         -3.283265   4.635145   1.388054 H        1 UNL1     0.0524
     123 H         -2.748678   4.510315   3.082862 H        1 UNL1     0.0524
@<TRIPOS>BOND
     1     1     2    1
     2     1    42    1
     3     2     3    2
     4     3     4    1
     5     4     5    2
     6     5     7    1
     7     6    75    1
     8     6    76    1
     9     6    77    1
    10     7     9   am
    11     9    10    1
    12    10    11    2
    13    10    43    1
    14    11    14    1
    15    11    15    1
    16    12    13   ar
    17    12    27   ar
    18    12    43    1
    19    13    14    1
    20    13    30   ar
    21    14    17    2
    22    15    16    1
    23    16    17    1
    24    16    18    1
    25    16    22    1
    26    18    19    1
    27    19    20    1
    28    20    21    1
    29    21    22    1
    30    23    24    1
    31    23    88    1
    32    23    89    1
    33    24    25    1
    34    24    26    1
    35    24    90    1
    36    25    91    1
    37    25    92    1
    38    25    93    1
    39    26    94    1
    40    26    95    1
    41    26    96    1
    42    27    28   ar
    43    28    29   ar
    44    29    30   ar
    45    29    31    1
    46    30    33    1
    47    31    32    1
    48    32    33    1
    49    32    35    1
    50    34    97    1
    51    34    98    1
    52    34    99    1
    53    35    61    1
    54    36    37    1
    55    36    60    1
    56    37    38    1
    57    38    39    1
    58    39    40    1
    59    40    41    1
    60    41    42    1
    61    45   100    1
    62    47   101    1
    63    47   102    1
    64    47   103    1
    65    48   104    1
    66    49   105    1
    67    49   106    1
    68    49   107    1
    69    50   108    1
    70    51    59    1
    71    52   109    1
    72    52   110    1
    73    52   111    1
    74    53    54    1
    75    54    55    2
    76    54    56    1
    77    56   112    1
    78    56   113    1
    79    56   114    1
    80    57   115    1
    81    57   116    1
    82    57   117    1
    83    58   118    1
    84    58   119    1
    85    58   120    1
    86    59   121    1
    87    59   122    1
    88    59   123    1
    89    60    61    2
    90     1    47    1
    91     1    62    1
    92     2    63    1
    93     3    64    1
    94     4    65    1
    95     5     6    1
    96     7     8    2
    97     9    78    1
    98    15    79    1
    99    18    80    1
   100    18    81    1
   101    19    82    1
   102    19    83    1
   103    20    23    1
   104    21    84    1
   105    21    85    1
   106    22    86    1
   107    22    87    1
   108    27    45    1
   109    28    34    1
   110    32    58    1
   111    33    46    2
   112    36    51    1
   113    36    66    1
   114    37    52    1
   115    37    67    1
   116    38    53    1
   117    38    68    1
   118    42    48    1
   119    42    72    1
   120    43    44    2
   121    60    73    1
   122    61    74    1
   123    39    69    1
   124    39    57    1
   125    40    70    1
   126    40    50    1
   127    41    71    1
   128    41    49    1
