@<TRIPOS>MOLECULE
*****
 123 128 0 0 0
SMALL
GASTEIGER

@<TRIPOS>ATOM
     1 C         -1.206988   -2.245318   -4.091203 C.3        1 UNL1     0.0009
     2 C         -0.77702   -3.89552   -4.818524 C.2        1 UNL1     -0.0787
     3 C         -0.145557   -4.685515   -5.854482 C.2        1 UNL1     -0.0649
     4 C         0.030381   -6.36817   -5.918324 C.2        1 UNL1     -0.0542
     5 C         0.755325   -7.438582   -6.497766 C.2        1 UNL1     0.0115
     6 C         1.785984   -7.806914   -7.600215 C.3        1 UNL1     -0.0348
     7 C         0.704168   -8.881385   -5.795847 C.2        1 UNL1     0.2441
     8 O         0.014132   -9.800815   -6.214208 O.2        1 UNL1     -0.2702
     9 N         1.69874   -9.100547   -4.826855 N.am        1 UNL1     -0.2772
     10 C         1.271293   -8.666101   -3.593215 C.2        1 UNL1     0.1049
     11 C         1.411036   -7.375524   -3.3501 C.2        1 UNL1     0.0801
     12 C         -0.654474   -8.796613   -2.002077 C.ar        1 UNL1     0.0753
     13 C         -0.594202   -7.368173   -1.934719 C.ar        1 UNL1     0.0305
     14 C         0.525276   -6.621851   -2.504651 C.2        1 UNL1     0.0924
     15 N         2.095787   -6.438091   -4.027495 N.pl3        1 UNL1     -0.3170
     16 C         2.069136   -5.227273   -3.250666 C.3        1 UNL1     0.1275
     17 N         0.793499   -5.320335   -2.449534 N.2        1 UNL1     -0.2557
     18 C         3.21017   -5.312327   -2.241455 C.3        1 UNL1     0.0016
     19 C         4.509694   -5.546144   -2.995217 C.3        1 UNL1     0.0026
     20 N         4.714848   -4.445389   -3.926495 N.3        1 UNL1     -0.3018
     21 C         3.638449   -4.244864   -4.898876 C.3        1 UNL1     0.0026
     22 C         2.34357   -4.007209   -4.119964 C.3        1 UNL1     0.0016
     23 C         6.056231   -4.41287   -4.474469 C.3        1 UNL1     0.0012
     24 C         6.233269   -5.514669   -5.531093 C.3        1 UNL1     -0.0339
     25 C         6.762969   -4.942925   -6.856455 C.3        1 UNL1     -0.0615
     26 C         7.137214   -6.610734   -4.994155 C.3        1 UNL1     -0.0615
     27 C         -1.660749   -9.507958   -1.352834 C.ar        1 UNL1     0.1347
     28 C         -2.63489   -8.905928   -0.576523 C.ar        1 UNL1     0.0342
     29 C         -2.584523   -7.495791   -0.56469 C.ar        1 UNL1     0.1435
     30 C         -1.603815   -6.76798   -1.239762 C.ar        1 UNL1     0.0774
     31 O         -3.396835   -6.768247   0.232703 O.3        1 UNL1     -0.4436
     32 C         -2.755822   -5.487547   0.331599 C.3        1 UNL1     0.3143
     33 C         -1.878566   -5.38748   -0.899914 C.2        1 UNL1     0.2504
     34 C         -3.587747   -9.612476   0.347033 C.3        1 UNL1     -0.0327
     35 O         -3.775507   -4.489504   0.199668 O.2        1 UNL1     -0.4528
     36 C         -2.584821   -1.510697   2.228723 C.3        1 UNL1     0.0854
     37 C         -1.248161   -0.68428   2.094936 C.3        1 UNL1     0.0236
     38 C         -1.446675   0.895011   1.899552 C.3        1 UNL1     0.1131
     39 C         -2.428439   1.430447   0.78075 C.3        1 UNL1     0.0200
     40 C         -2.428171   0.747271   -0.740996 C.3        1 UNL1     0.0661
     41 C         -1.060063   0.46608   -1.703712 C.3        1 UNL1     0.0091
     42 C         -0.71454   -0.861419   -2.921811 C.3        1 UNL1     0.0661
     43 C         0.441612   -9.501368   -2.71213 C.2        1 UNL1     0.2131
     44 O         0.727089   -10.669241   -2.518965 O.2        1 UNL1     -0.2851
     45 O         -1.673859   -10.892759   -1.506436 O.3        1 UNL1     -0.5056
     46 O         -1.508255   -4.39283   -1.48249 O.2        1 UNL1     -0.2836
     47 C         -2.350755   -1.579756   -4.902873 C.3        1 UNL1     -0.0566
     48 O         -0.220553   0.06847   -3.966033 O.3        1 UNL1     -0.3909
     49 C         0.177819   0.611961   -0.847056 C.3        1 UNL1     -0.0577
     50 O         -3.290429   -0.371661   -0.788158 O.3        1 UNL1     -0.3910
     51 O         -3.776788   -0.79747   1.987988 O.3        1 UNL1     -0.3753
     52 C         -0.143681   -1.484144   1.329892 C.3        1 UNL1     -0.0564
     53 O         -0.194137   1.690245   2.125557 O.3        1 UNL1     -0.4608
     54 C         0.941618   1.228038   2.737402 C.2        1 UNL1     0.3042
     55 O         1.208061   0.064772   3.03683 O.2        1 UNL1     -0.2512
     56 C         1.962888   2.298619   2.997359 C.3        1 UNL1     0.0332
     57 C         -3.843393   1.707489   1.473083 C.3        1 UNL1     -0.0567
     58 C         -1.851595   -5.54659   1.584762 C.3        1 UNL1     0.0210
     59 C         -4.559328   -1.287669   0.900238 C.3        1 UNL1     0.0372
     60 C         -2.647396   -2.744082   1.398056 C.2        1 UNL1     -0.0208
     61 C         -3.630349   -3.22305   0.634421 C.2        1 UNL1     0.0882
     62 H         -1.681214   -2.761954   -3.248049 H        1 UNL1     0.0365
     63 H         -1.29876   -4.563603   -4.130104 H        1 UNL1     0.0576
     64 H         0.444032   -4.221938   -6.648579 H        1 UNL1     0.0615
     65 H         -0.652749   -6.731128   -5.145615 H        1 UNL1     0.0622
     66 H         -2.595818   -1.850471   3.27394 H        1 UNL1     0.0645
     67 H         -0.804672   -0.726443   3.104935 H        1 UNL1     0.0362
     68 H         -1.933579   1.13893   2.856082 H        1 UNL1     0.0741
     69 H         -2.191027   2.465853   0.575867 H        1 UNL1     0.0359
     70 H         -2.965603   1.534526   -1.303541 H        1 UNL1     0.0600
     71 H         -1.034844   1.40929   -2.283949 H        1 UNL1     0.0348
     72 H         -1.806655   -0.84371   -2.794189 H        1 UNL1     0.0602
     73 H         -1.782529   -3.332274   1.58049 H        1 UNL1     0.0628
     74 H         -4.521445   -2.66135   0.352147 H        1 UNL1     0.1022
     75 H         1.796815   -7.029823   -8.402117 H        1 UNL1     0.0279
     76 H         2.829556   -7.84399   -7.295826 H        1 UNL1     0.0279
     77 H         1.497517   -8.702384   -8.16997 H        1 UNL1     0.0279
     78 H         2.532988   -8.568953   -5.06668 H        1 UNL1     0.1553
     79 H         2.825322   -6.646873   -4.684093 H        1 UNL1     0.1484
     80 H         3.245083   -4.381842   -1.662019 H        1 UNL1     0.0317
     81 H         3.038545   -6.122029   -1.524113 H        1 UNL1     0.0317
     82 H         4.507925   -6.5131   -3.519531 H        1 UNL1     0.0428
     83 H         5.309709   -5.6054   -2.256627 H        1 UNL1     0.0428
     84 H         3.779107   -3.364422   -5.533578 H        1 UNL1     0.0428
     85 H         3.570197   -5.078918   -5.610924 H        1 UNL1     0.0428
     86 H         1.609496   -3.733851   -4.855082 H        1 UNL1     0.0317
     87 H         2.436361   -3.103288   -3.505625 H        1 UNL1     0.0317
     88 H         6.204236   -3.438235   -4.957662 H        1 UNL1     0.0429
     89 H         6.812334   -4.497747   -3.683344 H        1 UNL1     0.0429
     90 H         5.263832   -5.991203   -5.719029 H        1 UNL1     0.0308
     91 H         7.800936   -4.610711   -6.759707 H        1 UNL1     0.0233
     92 H         6.697759   -5.688558   -7.652311 H        1 UNL1     0.0233
     93 H         6.182741   -4.077828   -7.199645 H        1 UNL1     0.0233
     94 H         7.175352   -7.448088   -5.699293 H        1 UNL1     0.0233
     95 H         8.154229   -6.228564   -4.869301 H        1 UNL1     0.0233
     96 H         6.780434   -6.986069   -4.030931 H        1 UNL1     0.0233
     97 H         -4.480919   -9.950551   -0.169861 H        1 UNL1     0.0280
     98 H         -3.141421   -10.510229   0.794345 H        1 UNL1     0.0280
     99 H         -3.894242   -8.928179   1.155051 H        1 UNL1     0.0280
     100 H         -0.850882   -11.265229   -1.770251 H        1 UNL1     0.2922
     101 H         -3.284889   -1.64807   -4.345752 H        1 UNL1     0.0236
     102 H         -2.44692   -1.976883   -5.912836 H        1 UNL1     0.0236
     103 H         -2.185598   -0.498136   -5.040761 H        1 UNL1     0.0236
     104 H         0.588357   -0.322526   -4.350425 H        1 UNL1     0.2098
     105 H         1.094241   0.267678   -1.319763 H        1 UNL1     0.0234
     106 H         0.322386   1.604708   -0.421049 H        1 UNL1     0.0234
     107 H         0.0   0.0   0.0 H        1 UNL1     0.0234
     108 H         -4.119184   -0.118444   -0.337809 H        1 UNL1     0.2098
     109 H         -0.209065   -1.346628   0.241533 H        1 UNL1     0.0234
     110 H         0.870937   -1.248541   1.66869 H        1 UNL1     0.0234
     111 H         -0.236489   -2.565225   1.498999 H        1 UNL1     0.0234
     112 H         2.361286   2.19461   4.011167 H        1 UNL1     0.0342
     113 H         2.763965   2.288202   2.259788 H        1 UNL1     0.0342
     114 H         1.461843   3.274168   2.930848 H        1 UNL1     0.0342
     115 H         -4.640729   1.848805   0.730472 H        1 UNL1     0.0234
     116 H         -4.166012   0.918316   2.155118 H        1 UNL1     0.0234
     117 H         -3.886596   2.666621   2.017271 H        1 UNL1     0.0234
     118 H         -1.915124   -6.522998   2.096228 H        1 UNL1     0.0309
     119 H         -0.802092   -5.323342   1.368184 H        1 UNL1     0.0309
     120 H         -2.159362   -4.835375   2.359075 H        1 UNL1     0.0309
     121 H         -4.163966   -2.264673   0.623633 H        1 UNL1     0.0524
     122 H         -5.618607   -1.423833   1.174872 H        1 UNL1     0.0524
     123 H         -4.498647   -0.606173   0.056452 H        1 UNL1     0.0524
@<TRIPOS>BOND
     1     1     2    1
     2     1    42    1
     3     2     3    2
     4     3     4    1
     5     4     5    2
     6     5     7    1
     7     6    75    1
     8     6    76    1
     9     6    77    1
    10     7     9   am
    11     9    10    1
    12    10    11    2
    13    10    43    1
    14    11    14    1
    15    11    15    1
    16    12    13   ar
    17    12    27   ar
    18    12    43    1
    19    13    14    1
    20    13    30   ar
    21    14    17    2
    22    15    16    1
    23    16    17    1
    24    16    18    1
    25    16    22    1
    26    18    19    1
    27    19    20    1
    28    20    21    1
    29    21    22    1
    30    23    24    1
    31    23    88    1
    32    23    89    1
    33    24    25    1
    34    24    26    1
    35    24    90    1
    36    25    91    1
    37    25    92    1
    38    25    93    1
    39    26    94    1
    40    26    95    1
    41    26    96    1
    42    27    28   ar
    43    28    29   ar
    44    29    30   ar
    45    29    31    1
    46    30    33    1
    47    31    32    1
    48    32    33    1
    49    32    35    1
    50    34    97    1
    51    34    98    1
    52    34    99    1
    53    35    61    1
    54    36    37    1
    55    36    60    1
    56    37    38    1
    57    38    39    1
    58    39    40    1
    59    40    41    1
    60    41    42    1
    61    45   100    1
    62    47   101    1
    63    47   102    1
    64    47   103    1
    65    48   104    1
    66    49   105    1
    67    49   106    1
    68    49   107    1
    69    50   108    1
    70    51    59    1
    71    52   109    1
    72    52   110    1
    73    52   111    1
    74    53    54    1
    75    54    55    2
    76    54    56    1
    77    56   112    1
    78    56   113    1
    79    56   114    1
    80    57   115    1
    81    57   116    1
    82    57   117    1
    83    58   118    1
    84    58   119    1
    85    58   120    1
    86    59   121    1
    87    59   122    1
    88    59   123    1
    89    60    61    2
    90     1    47    1
    91     1    62    1
    92     2    63    1
    93     3    64    1
    94     4    65    1
    95     5     6    1
    96     7     8    2
    97     9    78    1
    98    15    79    1
    99    18    80    1
   100    18    81    1
   101    19    82    1
   102    19    83    1
   103    20    23    1
   104    21    84    1
   105    21    85    1
   106    22    86    1
   107    22    87    1
   108    27    45    1
   109    28    34    1
   110    32    58    1
   111    33    46    2
   112    36    51    1
   113    36    66    1
   114    37    52    1
   115    37    67    1
   116    38    53    1
   117    38    68    1
   118    42    48    1
   119    42    72    1
   120    43    44    2
   121    60    73    1
   122    61    74    1
   123    39    69    1
   124    39    57    1
   125    40    70    1
   126    40    50    1
   127    41    71    1
   128    41    49    1
