@<TRIPOS>MOLECULE
*****
 123 128 0 0 0
SMALL
GASTEIGER

@<TRIPOS>ATOM
     1 C         5.074113   2.0229   -0.400658 C.3        1 UNL1     0.0009
     2 C         6.627941   2.465591   0.50856 C.2        1 UNL1     -0.0787
     3 C         7.487108   3.458954   1.117747 C.2        1 UNL1     -0.0649
     4 C         8.90509   3.203839   2.006905 C.2        1 UNL1     -0.0542
     5 C         9.803479   3.766998   2.946493 C.2        1 UNL1     0.0115
     6 C         10.189268   5.07689   3.687218 C.3        1 UNL1     -0.0348
     7 C         10.802969   2.796382   3.743935 C.2        1 UNL1     0.2441
     8 O         11.986164   2.678124   3.456549 O.2        1 UNL1     -0.2702
     9 N         10.293802   2.291293   4.952978 N.am        1 UNL1     -0.2772
     10 C         9.598827   1.124604   4.731237 C.2        1 UNL1     0.1049
     11 C         8.345958   1.259611   4.335872 C.2        1 UNL1     0.0801
     12 C         9.76117   -1.094112   3.587438 C.ar        1 UNL1     0.0753
     13 C         8.481995   -0.804286   3.014447 C.ar        1 UNL1     0.0305
     14 C         7.675231   0.32368   3.474747 C.2        1 UNL1     0.0924
     15 N         7.56068   2.350142   4.311202 N.pl3        1 UNL1     -0.3170
     16 C         6.23211   1.926985   3.956106 C.3        1 UNL1     0.1275
     17 N         6.440352   0.679693   3.132321 N.2        1 UNL1     -0.2557
     18 C         5.542776   1.476123   5.240334 C.3        1 UNL1     0.0016
     19 C         5.591   2.616757   6.244435 C.3        1 UNL1     0.0026
     20 N         4.921304   3.775014   5.66913 N.3        1 UNL1     -0.3018
     21 C         5.475349   4.24572   4.397973 C.3        1 UNL1     0.0026
     22 C         5.4128   3.08557   3.402969 C.3        1 UNL1     0.0016
     23 C         4.648128   4.810982   6.645239 C.3        1 UNL1     0.0012
     24 C         3.547799   4.358022   7.617792 C.3        1 UNL1     -0.0339
     25 C         4.14415   3.766875   8.9058 C.3        1 UNL1     -0.0615
     26 C         2.608217   5.513501   7.915843 C.3        1 UNL1     -0.0615
     27 C         10.469871   -2.238498   3.229327 C.ar        1 UNL1     0.1347
     28 C         9.985793   -3.183512   2.342385 C.ar        1 UNL1     0.0342
     29 C         8.746614   -2.852693   1.754033 C.ar        1 UNL1     0.1435
     30 C         8.041993   -1.692045   2.075939 C.ar        1 UNL1     0.0774
     31 O         8.091813   -3.722266   0.953979 O.3        1 UNL1     -0.4436
     32 C         6.733131   -3.258758   0.949842 C.3        1 UNL1     0.3143
     33 C         6.814474   -1.790124   1.314136 C.2        1 UNL1     0.2504
     34 C         10.569328   -4.548079   2.102501 C.3        1 UNL1     -0.0327
     35 O         6.263603   -3.327833   -0.402202 O.2        1 UNL1     -0.4528
     36 C         2.528448   -3.964456   -0.175452 C.3        1 UNL1     0.0854
     37 C         1.415633   -3.116511   0.552667 C.3        1 UNL1     0.0236
     38 C         0.1919   -2.664513   -0.380027 C.3        1 UNL1     0.1131
     39 C         0.479911   -1.949602   -1.761411 C.3        1 UNL1     0.0200
     40 C         1.641551   -0.757418   -1.869711 C.3        1 UNL1     0.0661
     41 C         1.786136   0.585248   -0.84309 C.3        1 UNL1     0.0091
     42 C         3.274058   1.501766   -0.284979 C.3        1 UNL1     0.0661
     43 C         10.268071   -0.181754   4.642385 C.2        1 UNL1     0.2131
     44 O         11.108099   -0.50294   5.463317 O.2        1 UNL1     -0.2851
     45 O         11.727907   -2.42292   3.799214 O.3        1 UNL1     -0.5056
     46 O         6.049874   -0.897899   1.022288 O.2        1 UNL1     -0.2836
     47 C         5.188819   2.42983   -1.894389 C.3        1 UNL1     -0.0566
     48 O         2.697251   2.838146   -0.568701 O.3        1 UNL1     -0.3909
     49 C         0.922122   0.361258   0.377894 C.3        1 UNL1     -0.0577
     50 O         2.915475   -1.319539   -2.112326 O.3        1 UNL1     -0.3910
     51 O         2.403688   -4.071778   -1.575576 O.3        1 UNL1     -0.3753
     52 C         2.02251   -2.173701   1.642511 C.3        1 UNL1     -0.0564
     53 O         -1.000882   -2.176342   0.388925 O.3        1 UNL1     -0.4608
     54 C         -2.000976   -1.385157   -0.11284 C.2        1 UNL1     0.3042
     55 O         -2.246369   -0.215716   0.180467 O.2        1 UNL1     -0.2512
     56 C         -2.822769   -2.056608   -1.176101 C.3        1 UNL1     0.0332
     57 C         0.456245   -3.072758   -2.89989 C.3        1 UNL1     -0.0567
     58 C         6.009293   -4.015645   2.087696 C.3        1 UNL1     0.0210
     59 C         2.958219   -5.260356   -2.137397 C.3        1 UNL1     0.0372
     60 C         3.926732   -3.534901   0.09922 C.2        1 UNL1     -0.0208
     61 C         4.957745   -3.365822   -0.729737 C.2        1 UNL1     0.0882
     62 H         5.362933   0.966616   -0.341003 H        1 UNL1     0.0365
     63 H         7.121661   1.492617   0.553663 H        1 UNL1     0.0576
     64 H         7.186893   4.50645   1.193457 H        1 UNL1     0.0615
     65 H         9.157894   2.160292   1.800549 H        1 UNL1     0.0622
     66 H         2.432876   -4.971795   0.253711 H        1 UNL1     0.0645
     67 H         0.923476   -3.84085   1.224734 H        1 UNL1     0.0362
     68 H         -0.214432   -3.653255   -0.642336 H        1 UNL1     0.0741
     69 H         -0.41711   -1.436389   -2.08137 H        1 UNL1     0.0359
     70 H         1.353714   -0.297806   -2.834577 H        1 UNL1     0.0600
     71 H         1.181099   1.323917   -1.404567 H        1 UNL1     0.0348
     72 H         3.577983   0.950425   -1.186626 H        1 UNL1     0.0602
     73 H         4.075387   -3.479989   1.149046 H        1 UNL1     0.0628
     74 H         4.878298   -3.348975   -1.81723 H        1 UNL1     0.1022
     75 H         9.511773   5.911835   3.385722 H        1 UNL1     0.0279
     76 H         10.085674   5.070487   4.769944 H        1 UNL1     0.0279
     77 H         11.168497   5.469008   3.37568 H        1 UNL1     0.0279
     78 H         9.644347   2.962544   5.357585 H        1 UNL1     0.1553
     79 H         7.742407   3.17956   4.845967 H        1 UNL1     0.1484
     80 H         4.509768   1.188905   5.009756 H        1 UNL1     0.0317
     81 H         6.030224   0.587125   5.654735 H        1 UNL1     0.0317
     82 H         6.623652   2.860288   6.534666 H        1 UNL1     0.0428
     83 H         5.095712   2.273278   7.15315 H        1 UNL1     0.0428
     84 H         4.906171   5.065094   3.948002 H        1 UNL1     0.0428
     85 H         6.486111   4.65881   4.520579 H        1 UNL1     0.0428
     86 H         5.699714   3.501405   2.454945 H        1 UNL1     0.0317
     87 H         4.37016   2.784842   3.24309 H        1 UNL1     0.0317
     88 H         5.567426   4.992095   7.217415 H        1 UNL1     0.0429
     89 H         4.380854   5.757504   6.157966 H        1 UNL1     0.0429
     90 H         2.933645   3.590013   7.132827 H        1 UNL1     0.0308
     91 H         4.797373   4.486455   9.4084 H        1 UNL1     0.0233
     92 H         3.352056   3.460569   9.593094 H        1 UNL1     0.0233
     93 H         4.746259   2.870457   8.714136 H        1 UNL1     0.0233
     94 H         1.942438   5.254406   8.74617 H        1 UNL1     0.0233
     95 H         3.183122   6.396819   8.207726 H        1 UNL1     0.0233
     96 H         1.994505   5.76339   7.045853 H        1 UNL1     0.0233
     97 H         9.98732   -5.119886   1.385889 H        1 UNL1     0.0280
     98 H         11.586012   -4.496966   1.691409 H        1 UNL1     0.0280
     99 H         10.597712   -5.10924   3.050862 H        1 UNL1     0.0280
     100 H         11.843718   -3.249879   4.233205 H        1 UNL1     0.2922
     101 H         4.288243   2.126987   -2.428155 H        1 UNL1     0.0236
     102 H         6.093177   2.055009   -2.372539 H        1 UNL1     0.0236
     103 H         5.235773   3.524101   -2.023077 H        1 UNL1     0.0236
     104 H         2.992215   3.103134   -1.461869 H        1 UNL1     0.2098
     105 H         1.309961   -0.379358   1.07279 H        1 UNL1     0.0234
     106 H         0.642992   1.269919   0.911136 H        1 UNL1     0.0234
     107 H         -0.0   0.0   0.0 H        1 UNL1     0.0234
     108 H         3.148949   -1.857042   -1.331078 H        1 UNL1     0.2098
     109 H         2.747338   -1.463246   1.221099 H        1 UNL1     0.0234
     110 H         1.262063   -1.627484   2.210939 H        1 UNL1     0.0234
     111 H         2.571102   -2.739569   2.407224 H        1 UNL1     0.0234
     112 H         -3.594645   -1.370827   -1.538396 H        1 UNL1     0.0342
     113 H         -2.209046   -2.423219   -1.997553 H        1 UNL1     0.0342
     114 H         -3.326482   -2.922466   -0.724737 H        1 UNL1     0.0342
     115 H         -0.510586   -3.593146   -2.940165 H        1 UNL1     0.0234
     116 H         0.667143   -2.693762   -3.901855 H        1 UNL1     0.0234
     117 H         1.142897   -3.91386   -2.70241 H        1 UNL1     0.0234
     118 H         5.674365   -5.018842   1.770797 H        1 UNL1     0.0309
     119 H         6.615409   -4.110215   2.994273 H        1 UNL1     0.0309
     120 H         5.079528   -3.524174   2.394453 H        1 UNL1     0.0309
     121 H         4.027709   -5.255784   -1.928765 H        1 UNL1     0.0524
     122 H         2.535752   -6.173266   -1.685562 H        1 UNL1     0.0524
     123 H         2.785591   -5.285261   -3.209626 H        1 UNL1     0.0524
@<TRIPOS>BOND
     1     1     2    1
     2     1    42    1
     3     2     3    2
     4     3     4    1
     5     4     5    2
     6     5     7    1
     7     6    75    1
     8     6    76    1
     9     6    77    1
    10     7     9   am
    11     9    10    1
    12    10    11    2
    13    10    43    1
    14    11    14    1
    15    11    15    1
    16    12    13   ar
    17    12    27   ar
    18    12    43    1
    19    13    14    1
    20    13    30   ar
    21    14    17    2
    22    15    16    1
    23    16    17    1
    24    16    18    1
    25    16    22    1
    26    18    19    1
    27    19    20    1
    28    20    21    1
    29    21    22    1
    30    23    24    1
    31    23    88    1
    32    23    89    1
    33    24    25    1
    34    24    26    1
    35    24    90    1
    36    25    91    1
    37    25    92    1
    38    25    93    1
    39    26    94    1
    40    26    95    1
    41    26    96    1
    42    27    28   ar
    43    28    29   ar
    44    29    30   ar
    45    29    31    1
    46    30    33    1
    47    31    32    1
    48    32    33    1
    49    32    35    1
    50    34    97    1
    51    34    98    1
    52    34    99    1
    53    35    61    1
    54    36    37    1
    55    36    60    1
    56    37    38    1
    57    38    39    1
    58    39    40    1
    59    40    41    1
    60    41    42    1
    61    45   100    1
    62    47   101    1
    63    47   102    1
    64    47   103    1
    65    48   104    1
    66    49   105    1
    67    49   106    1
    68    49   107    1
    69    50   108    1
    70    51    59    1
    71    52   109    1
    72    52   110    1
    73    52   111    1
    74    53    54    1
    75    54    55    2
    76    54    56    1
    77    56   112    1
    78    56   113    1
    79    56   114    1
    80    57   115    1
    81    57   116    1
    82    57   117    1
    83    58   118    1
    84    58   119    1
    85    58   120    1
    86    59   121    1
    87    59   122    1
    88    59   123    1
    89    60    61    2
    90     1    47    1
    91     1    62    1
    92     2    63    1
    93     3    64    1
    94     4    65    1
    95     5     6    1
    96     7     8    2
    97     9    78    1
    98    15    79    1
    99    18    80    1
   100    18    81    1
   101    19    82    1
   102    19    83    1
   103    20    23    1
   104    21    84    1
   105    21    85    1
   106    22    86    1
   107    22    87    1
   108    27    45    1
   109    28    34    1
   110    32    58    1
   111    33    46    2
   112    36    51    1
   113    36    66    1
   114    37    52    1
   115    37    67    1
   116    38    53    1
   117    38    68    1
   118    42    48    1
   119    42    72    1
   120    43    44    2
   121    60    73    1
   122    61    74    1
   123    39    69    1
   124    39    57    1
   125    40    70    1
   126    40    50    1
   127    41    71    1
   128    41    49    1
