@<TRIPOS>MOLECULE
*****
 123 128 0 0 0
SMALL
GASTEIGER

@<TRIPOS>ATOM
     1 C         2.083792   1.583025   -4.797742 C.3        1 UNL1     0.0009
     2 C         2.673682   1.01065   -6.459504 C.2        1 UNL1     -0.0787
     3 C         3.754883   0.734483   -7.381882 C.2        1 UNL1     -0.0649
     4 C         3.657849   0.02799   -8.917398 C.2        1 UNL1     -0.0542
     5 C         4.379894   -0.645749   -9.933176 C.2        1 UNL1     0.0115
     6 C         5.802829   -1.057469   -10.401218 C.3        1 UNL1     -0.0348
     7 C         3.568299   -1.46117   -11.052726 C.2        1 UNL1     0.2441
     8 O         3.382401   -1.033415   -12.183652 O.2        1 UNL1     -0.2702
     9 N         3.311267   -2.805454   -10.73181 N.am        1 UNL1     -0.2772
     10 C         2.132398   -2.914824   -10.030648 C.2        1 UNL1     0.1049
     11 C         2.204407   -2.686748   -8.731796 C.2        1 UNL1     0.0801
     12 C         -0.266585   -2.206802   -10.061021 C.ar        1 UNL1     0.0753
     13 C         -0.076456   -1.780418   -8.708004 C.ar        1 UNL1     0.0305
     14 C         1.128826   -2.127703   -7.958511 C.2        1 UNL1     0.0924
     15 N         3.279506   -2.567363   -7.934025 N.pl3        1 UNL1     -0.3170
     16 C         2.81247   -2.496451   -6.574943 C.3        1 UNL1     0.1275
     17 N         1.427656   -1.905997   -6.681611 N.2        1 UNL1     -0.2557
     18 C         2.625324   -3.929422   -6.085789 C.3        1 UNL1     0.0016
     19 C         3.936949   -4.678195   -6.260624 C.3        1 UNL1     0.0026
     20 N         4.971277   -3.994585   -5.496509 N.3        1 UNL1     -0.3018
     21 C         5.18208   -2.590104   -5.853388 C.3        1 UNL1     0.0026
     22 C         3.853228   -1.855981   -5.666006 C.3        1 UNL1     0.0016
     23 C         6.178792   -4.782856   -5.350973 C.3        1 UNL1     0.0012
     24 C         5.934785   -5.97327   -4.410159 C.3        1 UNL1     -0.0339
     25 C         7.189974   -6.305804   -3.586765 C.3        1 UNL1     -0.0615
     26 C         4.738142   -5.694652   -3.517299 C.3        1 UNL1     -0.0615
     27 C         -1.467131   -1.976072   -10.728532 C.ar        1 UNL1     0.1347
     28 C         -2.558896   -1.366657   -10.136321 C.ar        1 UNL1     0.0342
     29 C         -2.331988   -0.911699   -8.820004 C.ar        1 UNL1     0.1435
     30 C         -1.12249   -1.103575   -8.151037 C.ar        1 UNL1     0.0774
     31 O         -3.330916   -0.396891   -8.070256 O.3        1 UNL1     -0.4436
     32 C         -2.860072   -0.500865   -6.718084 C.3        1 UNL1     0.3143
     33 C         -1.349927   -0.560866   -6.82797 C.2        1 UNL1     0.2504
     34 C         -3.951239   -1.311077   -10.700582 C.3        1 UNL1     -0.0327
     35 O         -3.181832   0.730195   -6.059135 O.2        1 UNL1     -0.4528
     36 C         -3.716778   -0.153443   -2.406587 C.3        1 UNL1     0.0854
     37 C         -2.731033   -0.858779   -1.397463 C.3        1 UNL1     0.0236
     38 C         -2.451567   -0.044093   -0.044714 C.3        1 UNL1     0.1131
     39 C         -2.019018   1.475682   -0.118582 C.3        1 UNL1     0.0200
     40 C         -0.884317   1.977939   -1.233315 C.3        1 UNL1     0.0661
     41 C         0.628696   1.260041   -1.503541 C.3        1 UNL1     0.0091
     42 C         1.616899   1.109838   -3.041819 C.3        1 UNL1     0.0661
     43 C         0.825133   -2.982251   -10.700624 C.2        1 UNL1     0.2131
     44 O         0.657303   -3.718969   -11.655515 O.2        1 UNL1     -0.2851
     45 O         -1.554163   -2.382282   -12.058516 O.3        1 UNL1     -0.5056
     46 O         -0.521016   -0.217199   -6.015164 O.2        1 UNL1     -0.2836
     47 C         2.194681   3.127633   -4.688781 C.3        1 UNL1     -0.0566
     48 O         2.880893   1.558065   -2.408946 O.3        1 UNL1     -0.3909
     49 C         0.654186   -0.093326   -0.828825 C.3        1 UNL1     -0.0577
     50 O         -1.498293   2.290216   -2.467512 O.3        1 UNL1     -0.3910
     51 O         -4.089573   1.166918   -2.082392 O.3        1 UNL1     -0.3753
     52 C         -1.603965   -1.647766   -2.140541 C.3        1 UNL1     -0.0564
     53 O         -1.810029   -0.86969   1.031921 O.3        1 UNL1     -0.4608
     54 C         -0.856201   -0.427577   1.910942 C.2        1 UNL1     0.3042
     55 O         -0.872046   -0.517876   3.137903 O.2        1 UNL1     -0.2512
     56 C         0.345082   0.176562   1.241128 C.3        1 UNL1     0.0332
     57 C         -3.339616   2.361803   0.051665 C.3        1 UNL1     -0.0567
     58 C         -3.375214   -1.855479   -6.178476 C.3        1 UNL1     0.0210
     59 C         -5.356852   1.575071   -2.5955 C.3        1 UNL1     0.0372
     60 C         -3.259779   -0.134958   -3.82291 C.2        1 UNL1     -0.0208
     61 C         -3.265893   0.851555   -4.720407 C.2        1 UNL1     0.0882
     62 H         1.055162   1.364296   -5.108852 H        1 UNL1     0.0365
     63 H         1.721473   0.851731   -6.969909 H        1 UNL1     0.0576
     64 H         4.801039   0.818481   -7.079212 H        1 UNL1     0.0615
     65 H         2.591051   0.064689   -9.154208 H        1 UNL1     0.0622
     66 H         -4.621626   -0.77716   -2.390051 H        1 UNL1     0.0645
     67 H         -3.3066   -1.721449   -1.019201 H        1 UNL1     0.0362
     68 H         -3.467184   -0.038103   0.37956 H        1 UNL1     0.0741
     69 H         -1.565791   1.754714   0.823297 H        1 UNL1     0.0359
     70 H         -0.615137   2.960965   -0.801734 H        1 UNL1     0.0600
     71 H         1.253143   1.859087   -0.812045 H        1 UNL1     0.0348
     72 H         0.898871   1.923283   -3.220865 H        1 UNL1     0.0602
     73 H         -3.006016   -1.121893   -4.120922 H        1 UNL1     0.0628
     74 H         -3.457332   1.898853   -4.484283 H        1 UNL1     0.1022
     75 H         6.502111   -0.188939   -10.340436 H        1 UNL1     0.0279
     76 H         6.311494   -1.810075   -9.80296 H        1 UNL1     0.0279
     77 H         5.845346   -1.295354   -11.474207 H        1 UNL1     0.0279
     78 H         4.055733   -3.163517   -10.137135 H        1 UNL1     0.1553
     79 H         4.193908   -2.900941   -8.178006 H        1 UNL1     0.1484
     80 H         2.311952   -3.91045   -5.034978 H        1 UNL1     0.0317
     81 H         1.826555   -4.431598   -6.642062 H        1 UNL1     0.0317
     82 H         4.218918   -4.763504   -7.320401 H        1 UNL1     0.0428
     83 H         3.780626   -5.697941   -5.907451 H        1 UNL1     0.0428
     84 H         5.906703   -2.078607   -5.212215 H        1 UNL1     0.0428
     85 H         5.598497   -2.483343   -6.864583 H        1 UNL1     0.0428
     86 H         4.075579   -0.814398   -5.806192 H        1 UNL1     0.0317
     87 H         3.540303   -1.909623   -4.616102 H        1 UNL1     0.0317
     88 H         6.455085   -5.170243   -6.340361 H        1 UNL1     0.0429
     89 H         7.017283   -4.166995   -5.001084 H        1 UNL1     0.0429
     90 H         5.665174   -6.852997   -5.006484 H        1 UNL1     0.0308
     91 H         7.639104   -5.402205   -3.163808 H        1 UNL1     0.0233
     92 H         6.948649   -6.998923   -2.777471 H        1 UNL1     0.0233
     93 H         7.965933   -6.795469   -4.187557 H        1 UNL1     0.0233
     94 H         4.785222   -6.317375   -2.61739 H        1 UNL1     0.0233
     95 H         4.74229   -4.64719   -3.203026 H        1 UNL1     0.0233
     96 H         3.797359   -5.90447   -4.033897 H        1 UNL1     0.0233
     97 H         -4.657841   -0.876535   -9.999784 H        1 UNL1     0.0280
     98 H         -4.006547   -0.69228   -11.605727 H        1 UNL1     0.0280
     99 H         -4.290833   -2.330587   -10.946286 H        1 UNL1     0.0280
     100 H         -0.834206   -2.10879   -12.599337 H        1 UNL1     0.2922
     101 H         1.205372   3.574843   -4.783266 H        1 UNL1     0.0236
     102 H         2.906558   3.557013   -5.392945 H        1 UNL1     0.0236
     103 H         2.553048   3.448117   -3.696281 H        1 UNL1     0.0236
     104 H         2.658629   2.271465   -1.779161 H        1 UNL1     0.2098
     105 H         0.292538   -0.910602   -1.447761 H        1 UNL1     0.0234
     106 H         1.608858   -0.357581   -0.374185 H        1 UNL1     0.0234
     107 H         0.0   0.0   0.0 H        1 UNL1     0.0234
     108 H         -0.789493   2.353262   -3.136388 H        1 UNL1     0.2098
     109 H         -2.00878   -2.367404   -2.86577 H        1 UNL1     0.0234
     110 H         -0.87805   -0.995442   -2.637797 H        1 UNL1     0.0234
     111 H         -0.996256   -2.239025   -1.442651 H        1 UNL1     0.0234
     112 H         1.108053   0.413758   1.988763 H        1 UNL1     0.0342
     113 H         0.748262   -0.469649   0.46286 H        1 UNL1     0.0342
     114 H         0.035732   1.1174   0.765428 H        1 UNL1     0.0342
     115 H         -3.133481   3.305613   0.575037 H        1 UNL1     0.0234
     116 H         -3.832441   2.609664   -0.890533 H        1 UNL1     0.0234
     117 H         -4.091213   1.907342   0.719879 H        1 UNL1     0.0234
     118 H         -4.214619   -1.728395   -5.472604 H        1 UNL1     0.0309
     119 H         -3.675787   -2.54755   -6.971506 H        1 UNL1     0.0309
     120 H         -2.622747   -2.384492   -5.583459 H        1 UNL1     0.0309
     121 H         -5.337346   2.659755   -2.697658 H        1 UNL1     0.0524
     122 H         -5.560509   1.151298   -3.592985 H        1 UNL1     0.0524
     123 H         -6.150894   1.276718   -1.916842 H        1 UNL1     0.0524
@<TRIPOS>BOND
     1     1     2    1
     2     1    42    1
     3     2     3    2
     4     3     4    1
     5     4     5    2
     6     5     7    1
     7     6    75    1
     8     6    76    1
     9     6    77    1
    10     7     9   am
    11     9    10    1
    12    10    11    2
    13    10    43    1
    14    11    14    1
    15    11    15    1
    16    12    13   ar
    17    12    27   ar
    18    12    43    1
    19    13    14    1
    20    13    30   ar
    21    14    17    2
    22    15    16    1
    23    16    17    1
    24    16    18    1
    25    16    22    1
    26    18    19    1
    27    19    20    1
    28    20    21    1
    29    21    22    1
    30    23    24    1
    31    23    88    1
    32    23    89    1
    33    24    25    1
    34    24    26    1
    35    24    90    1
    36    25    91    1
    37    25    92    1
    38    25    93    1
    39    26    94    1
    40    26    95    1
    41    26    96    1
    42    27    28   ar
    43    28    29   ar
    44    29    30   ar
    45    29    31    1
    46    30    33    1
    47    31    32    1
    48    32    33    1
    49    32    35    1
    50    34    97    1
    51    34    98    1
    52    34    99    1
    53    35    61    1
    54    36    37    1
    55    36    60    1
    56    37    38    1
    57    38    39    1
    58    39    40    1
    59    40    41    1
    60    41    42    1
    61    45   100    1
    62    47   101    1
    63    47   102    1
    64    47   103    1
    65    48   104    1
    66    49   105    1
    67    49   106    1
    68    49   107    1
    69    50   108    1
    70    51    59    1
    71    52   109    1
    72    52   110    1
    73    52   111    1
    74    53    54    1
    75    54    55    2
    76    54    56    1
    77    56   112    1
    78    56   113    1
    79    56   114    1
    80    57   115    1
    81    57   116    1
    82    57   117    1
    83    58   118    1
    84    58   119    1
    85    58   120    1
    86    59   121    1
    87    59   122    1
    88    59   123    1
    89    60    61    2
    90     1    47    1
    91     1    62    1
    92     2    63    1
    93     3    64    1
    94     4    65    1
    95     5     6    1
    96     7     8    2
    97     9    78    1
    98    15    79    1
    99    18    80    1
   100    18    81    1
   101    19    82    1
   102    19    83    1
   103    20    23    1
   104    21    84    1
   105    21    85    1
   106    22    86    1
   107    22    87    1
   108    27    45    1
   109    28    34    1
   110    32    58    1
   111    33    46    2
   112    36    51    1
   113    36    66    1
   114    37    52    1
   115    37    67    1
   116    38    53    1
   117    38    68    1
   118    42    48    1
   119    42    72    1
   120    43    44    2
   121    60    73    1
   122    61    74    1
   123    39    69    1
   124    39    57    1
   125    40    70    1
   126    40    50    1
   127    41    71    1
   128    41    49    1
