@<TRIPOS>MOLECULE
*****
 123 128 0 0 0
SMALL
GASTEIGER

@<TRIPOS>ATOM
     1 C         4.973   2.240674   0.510301 C.3        1 UNL1     0.0009
     2 C         6.356802   3.117898   -0.357228 C.2        1 UNL1     -0.0787
     3 C         7.666876   3.096762   -0.973107 C.2        1 UNL1     -0.0649
     4 C         8.449372   4.351327   -1.797803 C.2        1 UNL1     -0.0542
     5 C         9.471776   4.67099   -2.72494 C.2        1 UNL1     0.0115
     6 C         10.687645   4.096167   -3.502477 C.3        1 UNL1     -0.0348
     7 C         9.446687   6.105468   -3.445101 C.2        1 UNL1     0.2441
     8 O         10.172167   7.03143   -3.109246 O.2        1 UNL1     -0.2702
     9 N         8.725668   6.146479   -4.65117 N.am        1 UNL1     -0.2772
     10 C         7.400461   6.426747   -4.409104 C.2        1 UNL1     0.1049
     11 C         6.641852   5.40139   -4.0665 C.2        1 UNL1     0.0801
     12 C         5.899518   7.999926   -3.172329 C.ar        1 UNL1     0.0753
     13 C         5.23629   6.839851   -2.65953 C.ar        1 UNL1     0.0305
     14 C         5.503603   5.506586   -3.194319 C.2        1 UNL1     0.0924
     15 N         6.898326   4.082898   -4.114746 N.pl3        1 UNL1     -0.3170
     16 C         5.681126   3.38642   -3.79288 C.3        1 UNL1     0.1275
     17 N         4.918123   4.346048   -2.91273 N.2        1 UNL1     -0.2557
     18 C         4.87591   3.263375   -5.082915 C.3        1 UNL1     0.0016
     19 C         5.73629   2.57311   -6.129275 C.3        1 UNL1     0.0026
     20 N         6.123224   1.262337   -5.626101 N.3        1 UNL1     -0.3018
     21 C         6.850161   1.274103   -4.354963 C.3        1 UNL1     0.0026
     22 C         5.965719   1.96779   -3.317439 C.3        1 UNL1     0.0016
     23 C         6.687268   0.408317   -6.65233 C.3        1 UNL1     0.0012
     24 C         5.585608   -0.099773   -7.5957 C.3        1 UNL1     -0.0339
     25 C         5.885671   -1.522328   -8.096056 C.3        1 UNL1     -0.0615
     26 C         4.234034   -0.022865   -6.907142 C.3        1 UNL1     -0.0615
     27 C         5.552701   9.278657   -2.742581 C.ar        1 UNL1     0.1347
     28 C         4.535799   9.524442   -1.837291 C.ar        1 UNL1     0.0342
     29 C         3.929887   8.364589   -1.309298 C.ar        1 UNL1     0.1435
     30 C         4.291474   7.075727   -1.703393 C.ar        1 UNL1     0.0774
     31 O         2.850672   8.439318   -0.500153 O.3        1 UNL1     -0.4436
     32 C         2.257484   7.133652   -0.565264 C.3        1 UNL1     0.3143
     33 C         3.381736   6.208237   -0.98464 C.2        1 UNL1     0.2504
     34 C         3.942426   10.86916   -1.521473 C.3        1 UNL1     -0.0327
     35 O         1.890257   6.765549   0.769987 O.2        1 UNL1     -0.4528
     36 C         -1.13325   4.496056   0.429553 C.3        1 UNL1     0.0854
     37 C         -1.280535   3.146275   -0.372894 C.3        1 UNL1     0.0236
     38 C         -1.78638   1.895989   0.494661 C.3        1 UNL1     0.1131
     39 C         -1.063426   1.541181   1.856174 C.3        1 UNL1     0.0200
     40 C         0.60123   1.564961   1.960061 C.3        1 UNL1     0.0661
     41 C         1.674716   0.807847   0.88674 C.3        1 UNL1     0.0091
     42 C         3.359755   1.293895   0.348406 C.3        1 UNL1     0.0661
     43 C         6.907676   7.802246   -4.243217 C.2        1 UNL1     0.2131
     44 O         7.246325   8.677823   -5.018728 O.2        1 UNL1     -0.2851
     45 O         6.278238   10.351093   -3.257281 O.3        1 UNL1     -0.5056
     46 O         3.508864   5.02584   -0.757416 O.2        1 UNL1     -0.2836
     47 C         5.353273   1.9643   1.989825 C.3        1 UNL1     -0.0566
     48 O         3.939051   -0.05522   0.556787 O.3        1 UNL1     -0.3909
     49 C         0.91531   0.399105   -0.355728 C.3        1 UNL1     -0.0577
     50 O         1.065385   2.862949   2.272328 O.3        1 UNL1     -0.3910
     51 O         -1.291967   4.402303   1.827212 O.3        1 UNL1     -0.3753
     52 C         -0.181825   3.002403   -1.476111 C.3        1 UNL1     -0.0564
     53 O         -2.250667   0.736328   -0.337174 O.3        1 UNL1     -0.4608
     54 C         -2.0556   -0.586373   -0.036604 C.2        1 UNL1     0.3042
     55 O         -1.227278   -1.350286   -0.530728 O.2        1 UNL1     -0.2512
     56 C         -2.943854   -1.090062   1.065219 C.3        1 UNL1     0.0332
     57 C         -1.893777   2.230025   3.036931 C.3        1 UNL1     -0.0567
     58 C         1.206226   7.186824   -1.698206 C.3        1 UNL1     0.0210
     59 C         -1.745646   5.597726   2.46046 C.3        1 UNL1     0.0372
     60 C         0.136656   5.234485   0.190339 C.2        1 UNL1     -0.0208
     61 C         0.969091   5.823664   1.049795 C.2        1 UNL1     0.0882
     62 H         4.401225   3.176485   0.503712 H        1 UNL1     0.0365
     63 H         5.986142   4.144996   -0.344965 H        1 UNL1     0.0576
     64 H         8.223965   2.166059   -1.101754 H        1 UNL1     0.0615
     65 H         7.863137   5.237711   -1.540633 H        1 UNL1     0.0622
     66 H         -1.934022   5.138911   0.037702 H        1 UNL1     0.0645
     67 H         -2.147717   3.320316   -1.033397 H        1 UNL1     0.0362
     68 H         -2.784071   2.262323   0.780902 H        1 UNL1     0.0741
     69 H         -1.303008   0.520141   2.121664 H        1 UNL1     0.0359
     70 H         0.74223   0.988567   2.894378 H        1 UNL1     0.0600
     71 H         1.800255   -0.168156   1.395282 H        1 UNL1     0.0348
     72 H         3.169536   1.842888   1.282075 H        1 UNL1     0.0602
     73 H         0.2748   5.362354   -0.85456 H        1 UNL1     0.0628
     74 H         0.930766   5.695008   2.132022 H        1 UNL1     0.1022
     75 H         10.784929   2.998436   -3.322042 H        1 UNL1     0.0279
     76 H         10.639838   4.151861   -4.587687 H        1 UNL1     0.0279
     77 H         11.650383   4.465008   -3.119343 H        1 UNL1     0.0279
     78 H         8.768263   5.236983   -5.106232 H        1 UNL1     0.1553
     79 H         7.625123   3.677002   -4.675057 H        1 UNL1     0.1484
     80 H         3.959785   2.695735   -4.879776 H        1 UNL1     0.0317
     81 H         4.560823   4.248626   -5.442986 H        1 UNL1     0.0317
     82 H         6.620138   3.173626   -6.390245 H        1 UNL1     0.0428
     83 H         5.143562   2.497298   -7.041402 H        1 UNL1     0.0428
     84 H         7.058664   0.275073   -3.959644 H        1 UNL1     0.0428
     85 H         7.843116   1.733579   -4.456149 H        1 UNL1     0.0428
     86 H         6.468536   1.840381   -2.376732 H        1 UNL1     0.0317
     87 H         5.032905   1.40624   -3.184715 H        1 UNL1     0.0317
     88 H         7.401285   1.002924   -7.237066 H        1 UNL1     0.0429
     89 H         7.248085   -0.426467   -6.212564 H        1 UNL1     0.0429
     90 H         5.51863   0.568378   -8.462476 H        1 UNL1     0.0308
     91 H         6.198573   -2.174843   -7.275434 H        1 UNL1     0.0233
     92 H         5.007821   -1.95387   -8.582636 H        1 UNL1     0.0233
     93 H         6.689328   -1.541786   -8.842107 H        1 UNL1     0.0233
     94 H         3.484293   -0.575086   -7.484009 H        1 UNL1     0.0233
     95 H         4.294796   -0.474955   -5.913218 H        1 UNL1     0.0233
     96 H         3.89705   1.012402   -6.804036 H        1 UNL1     0.0233
     97 H         2.875226   10.900352   -1.719821 H        1 UNL1     0.0280
     98 H         4.059193   11.134662   -0.462638 H        1 UNL1     0.0280
     99 H         4.43107   11.641967   -2.137177 H        1 UNL1     0.0280
     100 H         7.212661   10.246809   -3.217277 H        1 UNL1     0.2922
     101 H         4.450753   1.787808   2.574602 H        1 UNL1     0.0236
     102 H         5.976588   2.744654   2.425151 H        1 UNL1     0.0236
     103 H         5.943413   1.039196   2.09987 H        1 UNL1     0.0236
     104 H         3.204614   -0.660548   0.778486 H        1 UNL1     0.2098
     105 H         0.681074   1.219694   -1.029209 H        1 UNL1     0.0234
     106 H         1.358879   -0.428695   -0.90883 H        1 UNL1     0.0234
     107 H         0.0   -0.0   0.0 H        1 UNL1     0.0234
     108 H         2.026127   2.877327   2.097579 H        1 UNL1     0.2098
     109 H         -0.159164   3.865735   -2.15571 H        1 UNL1     0.0234
     110 H         0.819666   2.832119   -1.066521 H        1 UNL1     0.0234
     111 H         -0.361   2.126634   -2.113975 H        1 UNL1     0.0234
     112 H         -2.723631   -2.142332   1.269122 H        1 UNL1     0.0342
     113 H         -2.855015   -0.489945   1.969548 H        1 UNL1     0.0342
     114 H         -3.985854   -1.02423   0.723068 H        1 UNL1     0.0342
     115 H         -1.880455   1.623805   3.953177 H        1 UNL1     0.0234
     116 H         -1.544737   3.230516   3.300064 H        1 UNL1     0.0234
     117 H         -2.977376   2.289181   2.836293 H        1 UNL1     0.0234
     118 H         0.174767   7.217665   -1.305589 H        1 UNL1     0.0309
     119 H         1.35427   8.028247   -2.382525 H        1 UNL1     0.0309
     120 H         1.212783   6.285182   -2.320384 H        1 UNL1     0.0309
     121 H         -1.400833   5.574677   3.493867 H        1 UNL1     0.0524
     122 H         -1.328031   6.504103   1.991295 H        1 UNL1     0.0524
     123 H         -2.830144   5.651792   2.428291 H        1 UNL1     0.0524
@<TRIPOS>BOND
     1     1     2    1
     2     1    42    1
     3     2     3    2
     4     3     4    1
     5     4     5    2
     6     5     7    1
     7     6    75    1
     8     6    76    1
     9     6    77    1
    10     7     9   am
    11     9    10    1
    12    10    11    2
    13    10    43    1
    14    11    14    1
    15    11    15    1
    16    12    13   ar
    17    12    27   ar
    18    12    43    1
    19    13    14    1
    20    13    30   ar
    21    14    17    2
    22    15    16    1
    23    16    17    1
    24    16    18    1
    25    16    22    1
    26    18    19    1
    27    19    20    1
    28    20    21    1
    29    21    22    1
    30    23    24    1
    31    23    88    1
    32    23    89    1
    33    24    25    1
    34    24    26    1
    35    24    90    1
    36    25    91    1
    37    25    92    1
    38    25    93    1
    39    26    94    1
    40    26    95    1
    41    26    96    1
    42    27    28   ar
    43    28    29   ar
    44    29    30   ar
    45    29    31    1
    46    30    33    1
    47    31    32    1
    48    32    33    1
    49    32    35    1
    50    34    97    1
    51    34    98    1
    52    34    99    1
    53    35    61    1
    54    36    37    1
    55    36    60    1
    56    37    38    1
    57    38    39    1
    58    39    40    1
    59    40    41    1
    60    41    42    1
    61    45   100    1
    62    47   101    1
    63    47   102    1
    64    47   103    1
    65    48   104    1
    66    49   105    1
    67    49   106    1
    68    49   107    1
    69    50   108    1
    70    51    59    1
    71    52   109    1
    72    52   110    1
    73    52   111    1
    74    53    54    1
    75    54    55    2
    76    54    56    1
    77    56   112    1
    78    56   113    1
    79    56   114    1
    80    57   115    1
    81    57   116    1
    82    57   117    1
    83    58   118    1
    84    58   119    1
    85    58   120    1
    86    59   121    1
    87    59   122    1
    88    59   123    1
    89    60    61    2
    90     1    47    1
    91     1    62    1
    92     2    63    1
    93     3    64    1
    94     4    65    1
    95     5     6    1
    96     7     8    2
    97     9    78    1
    98    15    79    1
    99    18    80    1
   100    18    81    1
   101    19    82    1
   102    19    83    1
   103    20    23    1
   104    21    84    1
   105    21    85    1
   106    22    86    1
   107    22    87    1
   108    27    45    1
   109    28    34    1
   110    32    58    1
   111    33    46    2
   112    36    51    1
   113    36    66    1
   114    37    52    1
   115    37    67    1
   116    38    53    1
   117    38    68    1
   118    42    48    1
   119    42    72    1
   120    43    44    2
   121    60    73    1
   122    61    74    1
   123    39    69    1
   124    39    57    1
   125    40    70    1
   126    40    50    1
   127    41    71    1
   128    41    49    1
