@<TRIPOS>MOLECULE
*****
 123 128 0 0 0
SMALL
GASTEIGER

@<TRIPOS>ATOM
     1 C         5.221524   1.458208   0.780122 C.3        1 UNL1     0.0009
     2 C         6.752589   2.160992   0.006189 C.2        1 UNL1     -0.0787
     3 C         8.064782   1.974245   -0.576322 C.2        1 UNL1     -0.0649
     4 C         9.058125   3.139598   -1.298527 C.2        1 UNL1     -0.0542
     5 C         10.149159   3.351983   -2.176944 C.2        1 UNL1     0.0115
     6 C         11.289373   2.643415   -2.958714 C.3        1 UNL1     -0.0348
     7 C         10.368729   4.813433   -2.803796 C.2        1 UNL1     0.2441
     8 O         11.214966   5.594357   -2.3908 O.2        1 UNL1     -0.2702
     9 N         9.705069   5.037294   -4.022646 N.am        1 UNL1     -0.2772
     10 C         8.430593   5.504217   -3.796778 C.2        1 UNL1     0.1049
     11 C         7.512723   4.589947   -3.540169 C.2        1 UNL1     0.0801
     12 C         7.145296   7.214041   -2.499918 C.ar        1 UNL1     0.0753
     13 C         6.295092   6.142019   -2.079763 C.ar        1 UNL1     0.0305
     14 C         6.374108   4.817737   -2.692203 C.2        1 UNL1     0.0924
     15 N         7.566274   3.252904   -3.666556 N.pl3        1 UNL1     -0.3170
     16 C         6.246451   2.735129   -3.421133 C.3        1 UNL1     0.1275
     17 N         5.608708   3.747018   -2.500761 N.2        1 UNL1     -0.2557
     18 C         5.477507   2.815233   -4.736432 C.3        1 UNL1     0.0016
     19 C         6.258391   2.063829   -5.802828 C.3        1 UNL1     0.0026
     20 N         6.422683   0.681345   -5.375306 N.3        1 UNL1     -0.3018
     21 C         7.097975   0.504734   -4.088 C.3        1 UNL1     0.0026
     22 C         6.294159   1.263762   -3.03081 C.3        1 UNL1     0.0016
     23 C         6.88517   -0.186917   -6.439669 C.3        1 UNL1     0.0012
     24 C         5.779297   -0.391055   -7.487108 C.3        1 UNL1     -0.0339
     25 C         6.003526   0.497057   -8.722031 C.3        1 UNL1     -0.0615
     26 C         5.683839   -1.859186   -7.864283 C.3        1 UNL1     -0.0615
     27 C         6.983101   8.503103   -1.997792 C.ar        1 UNL1     0.1347
     28 C         5.984655   8.848795   -1.104677 C.ar        1 UNL1     0.0342
     29 C         5.190562   7.767222   -0.667894 C.ar        1 UNL1     0.1435
     30 C         5.364549   6.463759   -1.134729 C.ar        1 UNL1     0.0774
     31 O         4.107801   7.959593   0.116727 O.3        1 UNL1     -0.4436
     32 C         3.324742   6.767616   -0.047227 C.3        1 UNL1     0.3143
     33 C         4.308381   5.706123   -0.496559 C.2        1 UNL1     0.2504
     34 C         5.593017   10.247856   -0.718223 C.3        1 UNL1     -0.0327
     35 O         2.859113   6.381796   1.251844 O.2        1 UNL1     -0.4528
     36 C         -0.461855   4.631622   0.689572 C.3        1 UNL1     0.0854
     37 C         -0.785475   3.371133   -0.201473 C.3        1 UNL1     0.0236
     38 C         -1.506431   2.164658   0.570786 C.3        1 UNL1     0.1131
     39 C         -0.894239   1.621772   1.924584 C.3        1 UNL1     0.0200
     40 C         0.749843   1.381567   2.072004 C.3        1 UNL1     0.0661
     41 C         1.731929   0.532885   0.979824 C.3        1 UNL1     0.0091
     42 C         3.489229   0.783689   0.516796 C.3        1 UNL1     0.0661
     43 C         8.148247   6.927014   -3.555364 C.2        1 UNL1     0.2131
     44 O         8.643606   7.784337   -4.264134 O.2        1 UNL1     -0.2851
     45 O         7.88152   9.479175   -2.423897 O.3        1 UNL1     -0.5056
     46 O         4.245343   4.506874   -0.342668 O.2        1 UNL1     -0.2836
     47 C         5.503126   1.038636   2.247991 C.3        1 UNL1     -0.0566
     48 O         3.847959   -0.648782   0.652648 O.3        1 UNL1     -0.3909
     49 C         0.962916   0.321323   -0.305227 C.3        1 UNL1     -0.0577
     50 O         1.395648   2.571194   2.478755 O.3        1 UNL1     -0.3910
     51 O         -0.681817   4.480389   2.073832 O.3        1 UNL1     -0.3753
     52 C         0.316261   3.125091   -1.283412 C.3        1 UNL1     -0.0564
     53 O         -2.11306   1.142439   -0.345399 O.3        1 UNL1     -0.4608
     54 C         -2.413145   -0.150918   -0.006122 C.2        1 UNL1     0.3042
     55 O         -1.803744   -1.169027   -0.331579 O.2        1 UNL1     -0.2512
     56 C         -3.595843   -0.272854   0.912065 C.3        1 UNL1     0.0332
     57 C         -1.650382   2.359119   3.125726 C.3        1 UNL1     -0.0567
     58 C         2.334224   7.050187   -1.200725 C.3        1 UNL1     0.0210
     59 C         -0.969642   5.691657   2.770863 C.3        1 UNL1     0.0372
     60 C         0.91354   5.177689   0.530638 C.2        1 UNL1     -0.0208
     61 C         1.795643   5.578731   1.447046 C.2        1 UNL1     0.0882
     62 H         4.80002   2.469899   0.819199 H        1 UNL1     0.0365
     63 H         6.543002   3.230479   0.075047 H        1 UNL1     0.0576
     64 H         8.477293   0.977924   -0.750356 H        1 UNL1     0.0615
     65 H         8.605564   4.089057   -0.999867 H        1 UNL1     0.0622
     66 H         -1.140809   5.412796   0.319662 H        1 UNL1     0.0645
     67 H         -1.592248   3.716266   -0.871218 H        1 UNL1     0.0362
     68 H         -2.445834   2.663166   0.854571 H        1 UNL1     0.0741
     69 H         -1.296142   0.636083   2.117714 H        1 UNL1     0.0359
     70 H         0.768361   0.735636   2.970609 H        1 UNL1     0.0600
     71 H         1.689015   -0.479351   1.427588 H        1 UNL1     0.0348
     72 H         3.352582   1.298845   1.478699 H        1 UNL1     0.0602
     73 H         1.106059   5.344718   -0.500035 H        1 UNL1     0.0628
     74 H         1.700284   5.393262   2.517442 H        1 UNL1     0.1022
     75 H         11.211432   1.535066   -2.846815 H        1 UNL1     0.0279
     76 H         11.288621   2.770431   -4.038962 H        1 UNL1     0.0279
     77 H         12.283165   2.835411   -2.528347 H        1 UNL1     0.0279
     78 H         9.6241   4.160923   -4.53401 H        1 UNL1     0.1553
     79 H         8.241671   2.773618   -4.233175 H        1 UNL1     0.1484
     80 H         4.478875   2.385026   -4.593526 H        1 UNL1     0.0317
     81 H         5.329436   3.857054   -5.040297 H        1 UNL1     0.0317
     82 H         7.23219   2.534896   -6.002132 H        1 UNL1     0.0428
     83 H         5.693307   2.135118   -6.732693 H        1 UNL1     0.0428
     84 H         7.137442   -0.536292   -3.752562 H        1 UNL1     0.0428
     85 H         8.152397   0.810312   -4.1342 H        1 UNL1     0.0428
     86 H         6.738394   1.004265   -2.087781 H        1 UNL1     0.0317
     87 H         5.282437   0.846341   -2.958183 H        1 UNL1     0.0317
     88 H         7.742563   0.296183   -6.926276 H        1 UNL1     0.0429
     89 H         7.238959   -1.148042   -6.044894 H        1 UNL1     0.0429
     90 H         4.811066   -0.132531   -7.042241 H        1 UNL1     0.0308
     91 H         6.979762   0.305777   -9.177528 H        1 UNL1     0.0233
     92 H         5.221436   0.328697   -9.466073 H        1 UNL1     0.0233
     93 H         5.969683   1.566072   -8.479345 H        1 UNL1     0.0233
     94 H         5.076215   -1.97828   -8.767857 H        1 UNL1     0.0233
     95 H         6.680864   -2.256751   -8.073677 H        1 UNL1     0.0233
     96 H         5.230058   -2.448475   -7.062541 H        1 UNL1     0.0233
     97 H         4.718389   10.263116   -0.074776 H        1 UNL1     0.0280
     98 H         6.38664   10.760172   -0.158803 H        1 UNL1     0.0280
     99 H         5.364888   10.83112   -1.625337 H        1 UNL1     0.0280
     100 H         7.479872   10.261491   -2.758981 H        1 UNL1     0.2922
     101 H         4.567853   0.773148   2.740371 H        1 UNL1     0.0236
     102 H         6.06201   1.787525   2.808167 H        1 UNL1     0.0236
     103 H         6.119307   0.125923   2.306878 H        1 UNL1     0.0236
     104 H         4.113752   -0.799536   1.580871 H        1 UNL1     0.2098
     105 H         0.839115   1.217957   -0.907334 H        1 UNL1     0.0234
     106 H         1.32464   -0.501095   -0.922244 H        1 UNL1     0.0234
     107 H         0.0   -0.0   0.0 H        1 UNL1     0.0234
     108 H         1.333608   3.20322   1.736823 H        1 UNL1     0.2098
     109 H         1.309638   2.973425   -0.838541 H        1 UNL1     0.0234
     110 H         0.083209   2.290054   -1.952847 H        1 UNL1     0.0234
     111 H         0.420747   3.985604   -1.957613 H        1 UNL1     0.0234
     112 H         -3.767922   -1.324738   1.159604 H        1 UNL1     0.0342
     113 H         -3.477911   0.326449   1.813604 H        1 UNL1     0.0342
     114 H         -4.482932   0.097373   0.379927 H        1 UNL1     0.0342
     115 H         -2.734613   2.184031   3.094486 H        1 UNL1     0.0234
     116 H         -1.299042   2.067049   4.117343 H        1 UNL1     0.0234
     117 H         -1.610361   3.460087   3.060852 H        1 UNL1     0.0234
     118 H         1.437735   7.593229   -0.853712 H        1 UNL1     0.0309
     119 H         2.787511   7.600922   -2.031041 H        1 UNL1     0.0309
     120 H         1.921612   6.132835   -1.634687 H        1 UNL1     0.0309
     121 H         -0.668751   5.554075   3.809079 H        1 UNL1     0.0524
     122 H         -0.402455   6.548971   2.371677 H        1 UNL1     0.0524
     123 H         -2.031392   5.914424   2.71469 H        1 UNL1     0.0524
@<TRIPOS>BOND
     1     1     2    1
     2     1    42    1
     3     2     3    2
     4     3     4    1
     5     4     5    2
     6     5     7    1
     7     6    75    1
     8     6    76    1
     9     6    77    1
    10     7     9   am
    11     9    10    1
    12    10    11    2
    13    10    43    1
    14    11    14    1
    15    11    15    1
    16    12    13   ar
    17    12    27   ar
    18    12    43    1
    19    13    14    1
    20    13    30   ar
    21    14    17    2
    22    15    16    1
    23    16    17    1
    24    16    18    1
    25    16    22    1
    26    18    19    1
    27    19    20    1
    28    20    21    1
    29    21    22    1
    30    23    24    1
    31    23    88    1
    32    23    89    1
    33    24    25    1
    34    24    26    1
    35    24    90    1
    36    25    91    1
    37    25    92    1
    38    25    93    1
    39    26    94    1
    40    26    95    1
    41    26    96    1
    42    27    28   ar
    43    28    29   ar
    44    29    30   ar
    45    29    31    1
    46    30    33    1
    47    31    32    1
    48    32    33    1
    49    32    35    1
    50    34    97    1
    51    34    98    1
    52    34    99    1
    53    35    61    1
    54    36    37    1
    55    36    60    1
    56    37    38    1
    57    38    39    1
    58    39    40    1
    59    40    41    1
    60    41    42    1
    61    45   100    1
    62    47   101    1
    63    47   102    1
    64    47   103    1
    65    48   104    1
    66    49   105    1
    67    49   106    1
    68    49   107    1
    69    50   108    1
    70    51    59    1
    71    52   109    1
    72    52   110    1
    73    52   111    1
    74    53    54    1
    75    54    55    2
    76    54    56    1
    77    56   112    1
    78    56   113    1
    79    56   114    1
    80    57   115    1
    81    57   116    1
    82    57   117    1
    83    58   118    1
    84    58   119    1
    85    58   120    1
    86    59   121    1
    87    59   122    1
    88    59   123    1
    89    60    61    2
    90     1    47    1
    91     1    62    1
    92     2    63    1
    93     3    64    1
    94     4    65    1
    95     5     6    1
    96     7     8    2
    97     9    78    1
    98    15    79    1
    99    18    80    1
   100    18    81    1
   101    19    82    1
   102    19    83    1
   103    20    23    1
   104    21    84    1
   105    21    85    1
   106    22    86    1
   107    22    87    1
   108    27    45    1
   109    28    34    1
   110    32    58    1
   111    33    46    2
   112    36    51    1
   113    36    66    1
   114    37    52    1
   115    37    67    1
   116    38    53    1
   117    38    68    1
   118    42    48    1
   119    42    72    1
   120    43    44    2
   121    60    73    1
   122    61    74    1
   123    39    69    1
   124    39    57    1
   125    40    70    1
   126    40    50    1
   127    41    71    1
   128    41    49    1
