@<TRIPOS>MOLECULE
*****
 123 128 0 0 0
SMALL
GASTEIGER

@<TRIPOS>ATOM
     1 C         -3.182863   2.723984   2.504499 C.3        1 UNL1     0.0009
     2 C         -4.972476   2.729925   2.98853 C.2        1 UNL1     -0.0787
     3 C         -6.3597   2.991515   2.66724 C.2        1 UNL1     -0.0649
     4 C         -7.72771   2.644601   3.602417 C.2        1 UNL1     -0.0542
     5 C         -9.131105   2.452103   3.579996 C.2        1 UNL1     0.0115
     6 C         -10.404044   2.586802   2.699765 C.3        1 UNL1     -0.0348
     7 C         -9.832422   1.703774   4.814965 C.2        1 UNL1     0.2441
     8 O         -10.445416   2.297405   5.69153 O.2        1 UNL1     -0.2702
     9 N         -9.919559   0.306793   4.684572 N.am        1 UNL1     -0.2772
     10 C         -8.783601   -0.293277   5.177359 C.2        1 UNL1     0.1049
     11 C         -7.750598   -0.34672   4.35622 C.2        1 UNL1     0.0801
     12 C         -7.258516   -0.326552   7.159868 C.ar        1 UNL1     0.0753
     13 C         -6.178589   -0.17295   6.233167 C.ar        1 UNL1     0.0305
     14 C         -6.38107   -0.310459   4.792631 C.2        1 UNL1     0.0924
     15 N         -7.681973   -0.098445   3.037062 N.pl3        1 UNL1     -0.3170
     16 C         -6.366002   -0.468533   2.588164 C.3        1 UNL1     0.1275
     17 N         -5.489974   -0.298895   3.805341 N.2        1 UNL1     -0.2557
     18 C         -6.393622   -1.964838   2.2915 C.3        1 UNL1     0.0016
     19 C         -7.500526   -2.241023   1.286475 C.3        1 UNL1     0.0026
     20 N         -7.237607   -1.472023   0.077947 N.3        1 UNL1     -0.3018
     21 C         -7.131772   -0.024542   0.272795 C.3        1 UNL1     0.0026
     22 C         -6.011088   0.230218   1.28228 C.3        1 UNL1     0.0016
     23 C         -8.057262   -1.886027   -1.043396 C.3        1 UNL1     0.0012
     24 C         -7.624384   -3.273069   -1.543884 C.3        1 UNL1     -0.0339
     25 C         -7.792161   -3.3989   -3.067063 C.3        1 UNL1     -0.0615
     26 C         -6.196424   -3.559828   -1.113211 C.3        1 UNL1     -0.0615
     27 C         -7.036868   -0.314248   8.534946 C.ar        1 UNL1     0.1347
     28 C         -5.779202   -0.195849   9.099133 C.ar        1 UNL1     0.0342
     29 C         -4.737213   0.003167   8.168641 C.ar        1 UNL1     0.1435
     30 C         -4.94897   0.029315   6.789622 C.ar        1 UNL1     0.0774
     31 O         -3.442714   0.025782   8.554347 O.3        1 UNL1     -0.4436
     32 C         -2.701574   -0.232289   7.352273 C.3        1 UNL1     0.3143
     33 C         -3.62485   0.176135   6.222245 C.2        1 UNL1     0.2504
     34 C         -5.436202   -0.42525   10.544756 C.3        1 UNL1     -0.0327
     35 O         -1.592129   0.674359   7.332939 O.2        1 UNL1     -0.4528
     36 C         1.177501   -1.110274   5.448178 C.3        1 UNL1     0.0854
     37 C         1.166689   -1.702333   3.986374 C.3        1 UNL1     0.0236
     38 C         2.334202   -1.161214   3.029375 C.3        1 UNL1     0.1131
     39 C         2.576476   0.395719   2.889612 C.3        1 UNL1     0.0200
     40 C         1.286388   1.439909   2.722944 C.3        1 UNL1     0.0661
     41 C         0.008329   1.272199   1.620197 C.3        1 UNL1     0.0091
     42 C         -1.754723   1.759894   1.758773 C.3        1 UNL1     0.0661
     43 C         -8.610591   -0.589046   6.607374 C.2        1 UNL1     0.2131
     44 O         -9.507377   -1.112891   7.243061 O.2        1 UNL1     -0.2851
     45 O         -8.147992   -0.424117   9.368475 O.3        1 UNL1     -0.5056
     46 O         -3.332672   0.558118   5.111131 O.2        1 UNL1     -0.2836
     47 C         -2.617942   4.16995   2.509971 C.3        1 UNL1     -0.0566
     48 O         -1.799055   2.405692   0.42457 O.3        1 UNL1     -0.3909
     49 C         0.035138   -0.129017   1.051542 C.3        1 UNL1     -0.0577
     50 O         0.785976   1.82412   3.987734 O.3        1 UNL1     -0.3910
     51 O         2.090248   -0.06148   5.68132 O.3        1 UNL1     -0.3753
     52 C         -0.288321   -1.944288   3.467383 C.3        1 UNL1     -0.0564
     53 O         2.519286   -1.980408   1.785594 O.3        1 UNL1     -0.4608
     54 C         3.119996   -1.549467   0.631745 C.2        1 UNL1     0.3042
     55 O         3.447003   -2.230504   -0.339385 O.2        1 UNL1     -0.2512
     56 C         3.327448   -0.062495   0.580853 C.3        1 UNL1     0.0332
     57 C         3.732914   0.798144   3.91863 C.3        1 UNL1     -0.0567
     58 C         -2.485442   -1.762368   7.291642 C.3        1 UNL1     0.0210
     59 C         3.216209   -0.414058   6.483671 C.3        1 UNL1     0.0372
     60 C         -0.145394   -0.647264   5.948911 C.2        1 UNL1     -0.0208
     61 C         -0.481532   0.467309   6.599665 C.2        1 UNL1     0.0882
     62 H         -2.939817   2.289354   3.481605 H        1 UNL1     0.0365
     63 H         -4.902077   2.417226   4.032432 H        1 UNL1     0.0576
     64 H         -6.665947   3.30771   1.667569 H        1 UNL1     0.0615
     65 H         -7.317639   2.420198   4.590834 H        1 UNL1     0.0622
     66 H         1.461667   -1.958123   6.087277 H        1 UNL1     0.0645
     67 H         1.464886   -2.756504   4.12188 H        1 UNL1     0.0362
     68 H         3.210684   -1.545218   3.57329 H        1 UNL1     0.0741
     69 H         3.148137   0.579583   1.98972 H        1 UNL1     0.0359
     70 H         1.814961   2.338065   2.350135 H        1 UNL1     0.0600
     71 H         0.408226   1.859089   0.770138 H        1 UNL1     0.0348
     72 H         -1.21707   2.347351   2.517153 H        1 UNL1     0.0602
     73 H         -0.85669   -1.426172   5.828043 H        1 UNL1     0.0628
     74 H         0.169899   1.334222   6.715154 H        1 UNL1     0.1022
     75 H         -10.431844   3.58552   2.200943 H        1 UNL1     0.0279
     76 H         -10.486771   1.902369   1.85847 H        1 UNL1     0.0279
     77 H         -11.330032   2.614722   3.292611 H        1 UNL1     0.0279
     78 H         -9.994363   0.059157   3.700114 H        1 UNL1     0.1553
     79 H         -8.480812   -0.088646   2.429861 H        1 UNL1     0.1484
     80 H         -5.414583   -2.270448   1.903104 H        1 UNL1     0.0317
     81 H         -6.561801   -2.542205   3.206932 H        1 UNL1     0.0317
     82 H         -8.492665   -2.004329   1.698238 H        1 UNL1     0.0428
     83 H         -7.503763   -3.313704   1.090527 H        1 UNL1     0.0428
     84 H         -6.855303   0.521156   -0.634724 H        1 UNL1     0.0428
     85 H         -8.092289   0.419379   0.568867 H        1 UNL1     0.0428
     86 H         -5.873298   1.295447   1.299233 H        1 UNL1     0.0317
     87 H         -5.058455   -0.14265   0.886609 H        1 UNL1     0.0317
     88 H         -9.098577   -1.947314   -0.701048 H        1 UNL1     0.0429
     89 H         -8.028053   -1.145895   -1.853412 H        1 UNL1     0.0429
     90 H         -8.242598   -4.038545   -1.060075 H        1 UNL1     0.0308
     91 H         -7.395226   -2.520568   -3.584825 H        1 UNL1     0.0233
     92 H         -7.286624   -4.293244   -3.438802 H        1 UNL1     0.0233
     93 H         -8.843248   -3.495713   -3.364853 H        1 UNL1     0.0233
     94 H         -5.549495   -3.658115   -1.991652 H        1 UNL1     0.0233
     95 H         -5.816458   -2.733878   -0.505433 H        1 UNL1     0.0233
     96 H         -6.132863   -4.484069   -0.532084 H        1 UNL1     0.0233
     97 H         -4.69172   -1.206151   10.667924 H        1 UNL1     0.0280
     98 H         -5.012699   0.470876   11.016836 H        1 UNL1     0.0280
     99 H         -6.343056   -0.722237   11.09658 H        1 UNL1     0.0280
     100 H         -8.855247   0.159607   9.157102 H        1 UNL1     0.2922
     101 H         -2.983103   4.710647   1.637067 H        1 UNL1     0.0236
     102 H         -1.531855   4.205535   2.588279 H        1 UNL1     0.0236
     103 H         -2.98114   4.753201   3.372582 H        1 UNL1     0.0236
     104 H         -1.540041   3.340778   0.540741 H        1 UNL1     0.2098
     105 H         0.934345   -0.692435   1.287759 H        1 UNL1     0.0234
     106 H         -0.851603   -0.724971   1.26708 H        1 UNL1     0.0234
     107 H         0.0   0.0   0.0 H        1 UNL1     0.0234
     108 H         0.509016   1.009527   4.449794 H        1 UNL1     0.2098
     109 H         -0.922017   -1.052925   3.575154 H        1 UNL1     0.0234
     110 H         -0.322602   -2.295019   2.430293 H        1 UNL1     0.0234
     111 H         -0.793246   -2.738185   4.033709 H        1 UNL1     0.0234
     112 H         3.292138   0.282893   -0.45684 H        1 UNL1     0.0342
     113 H         2.605566   0.473003   1.195648 H        1 UNL1     0.0342
     114 H         4.328966   0.157898   0.975256 H        1 UNL1     0.0342
     115 H         4.626335   0.17074   3.794732 H        1 UNL1     0.0234
     116 H         4.050499   1.840094   3.844267 H        1 UNL1     0.0234
     117 H         3.474475   0.595249   4.972188 H        1 UNL1     0.0234
     118 H         -1.428935   -2.038615   7.454387 H        1 UNL1     0.0309
     119 H         -3.112809   -2.313264   7.999545 H        1 UNL1     0.0309
     120 H         -2.706054   -2.179201   6.302861 H        1 UNL1     0.0309
     121 H         3.888534   0.443237   6.503198 H        1 UNL1     0.0524
     122 H         2.933616   -0.638118   7.525773 H        1 UNL1     0.0524
     123 H         3.7224   -1.27786   6.062116 H        1 UNL1     0.0524
@<TRIPOS>BOND
     1     1     2    1
     2     1    42    1
     3     2     3    2
     4     3     4    1
     5     4     5    2
     6     5     7    1
     7     6    75    1
     8     6    76    1
     9     6    77    1
    10     7     9   am
    11     9    10    1
    12    10    11    2
    13    10    43    1
    14    11    14    1
    15    11    15    1
    16    12    13   ar
    17    12    27   ar
    18    12    43    1
    19    13    14    1
    20    13    30   ar
    21    14    17    2
    22    15    16    1
    23    16    17    1
    24    16    18    1
    25    16    22    1
    26    18    19    1
    27    19    20    1
    28    20    21    1
    29    21    22    1
    30    23    24    1
    31    23    88    1
    32    23    89    1
    33    24    25    1
    34    24    26    1
    35    24    90    1
    36    25    91    1
    37    25    92    1
    38    25    93    1
    39    26    94    1
    40    26    95    1
    41    26    96    1
    42    27    28   ar
    43    28    29   ar
    44    29    30   ar
    45    29    31    1
    46    30    33    1
    47    31    32    1
    48    32    33    1
    49    32    35    1
    50    34    97    1
    51    34    98    1
    52    34    99    1
    53    35    61    1
    54    36    37    1
    55    36    60    1
    56    37    38    1
    57    38    39    1
    58    39    40    1
    59    40    41    1
    60    41    42    1
    61    45   100    1
    62    47   101    1
    63    47   102    1
    64    47   103    1
    65    48   104    1
    66    49   105    1
    67    49   106    1
    68    49   107    1
    69    50   108    1
    70    51    59    1
    71    52   109    1
    72    52   110    1
    73    52   111    1
    74    53    54    1
    75    54    55    2
    76    54    56    1
    77    56   112    1
    78    56   113    1
    79    56   114    1
    80    57   115    1
    81    57   116    1
    82    57   117    1
    83    58   118    1
    84    58   119    1
    85    58   120    1
    86    59   121    1
    87    59   122    1
    88    59   123    1
    89    60    61    2
    90     1    47    1
    91     1    62    1
    92     2    63    1
    93     3    64    1
    94     4    65    1
    95     5     6    1
    96     7     8    2
    97     9    78    1
    98    15    79    1
    99    18    80    1
   100    18    81    1
   101    19    82    1
   102    19    83    1
   103    20    23    1
   104    21    84    1
   105    21    85    1
   106    22    86    1
   107    22    87    1
   108    27    45    1
   109    28    34    1
   110    32    58    1
   111    33    46    2
   112    36    51    1
   113    36    66    1
   114    37    52    1
   115    37    67    1
   116    38    53    1
   117    38    68    1
   118    42    48    1
   119    42    72    1
   120    43    44    2
   121    60    73    1
   122    61    74    1
   123    39    69    1
   124    39    57    1
   125    40    70    1
   126    40    50    1
   127    41    71    1
   128    41    49    1
