@<TRIPOS>MOLECULE
*****
 123 128 0 0 0
SMALL
GASTEIGER

@<TRIPOS>ATOM
     1 C         5.165778   1.760488   0.46265 C.3        1 UNL1     0.0009
     2 C         6.596496   2.568397   -0.39605 C.2        1 UNL1     -0.0787
     3 C         7.875075   2.471916   -1.068341 C.2        1 UNL1     -0.0649
     4 C         8.746246   3.707887   -1.829783 C.2        1 UNL1     -0.0542
     5 C         9.760817   4.001456   -2.773997 C.2        1 UNL1     0.0115
     6 C         10.885672   3.377218   -3.644831 C.3        1 UNL1     -0.0348
     7 C         9.850199   5.484246   -3.382548 C.2        1 UNL1     0.2441
     8 O         10.674486   6.307841   -3.010034 O.2        1 UNL1     -0.2702
     9 N         9.093504   5.68856   -4.549518 N.am        1 UNL1     -0.2772
     10 C         7.811712   6.073159   -4.229494 C.2        1 UNL1     0.1049
     11 C         6.969292   5.100467   -3.932139 C.2        1 UNL1     0.0801
     12 C         6.517653   7.678861   -2.813701 C.ar        1 UNL1     0.0753
     13 C         5.763065   6.549994   -2.36108 C.ar        1 UNL1     0.0305
     14 C         5.879098   5.243832   -3.005695 C.2        1 UNL1     0.0924
     15 N         7.093589   3.771554   -4.090468 N.pl3        1 UNL1     -0.3170
     16 C         5.826515   3.17033   -3.769053 C.3        1 UNL1     0.1275
     17 N         5.193424   4.125405   -2.786835 N.2        1 UNL1     -0.2557
     18 C         4.96699   3.226456   -5.028326 C.3        1 UNL1     0.0016
     19 C         5.717274   2.542588   -6.160134 C.3        1 UNL1     0.0026
     20 N         5.992021   1.165407   -5.774239 N.3        1 UNL1     -0.3018
     21 C         6.762121   1.007764   -4.538738 C.3        1 UNL1     0.0026
     22 C         5.987921   1.698007   -3.414427 C.3        1 UNL1     0.0016
     23 C         6.432289   0.34553   -6.885368 C.3        1 UNL1     0.0012
     24 C         5.27222   0.09284   -7.861146 C.3        1 UNL1     -0.0339
     25 C         5.359218   1.014316   -9.088896 C.3        1 UNL1     -0.0615
     26 C         5.23895   -1.371584   -8.262562 C.3        1 UNL1     -0.0615
     27 C         6.313414   8.946739   -2.274361 C.ar        1 UNL1     0.1347
     28 C         5.358861   9.215502   -1.309662 C.ar        1 UNL1     0.0342
     29 C         4.661847   8.080224   -0.844387 C.ar        1 UNL1     0.1435
     30 C         4.881073   6.798076   -1.349615 C.ar        1 UNL1     0.0774
     31 O         3.625103   8.19274   0.014395 O.3        1 UNL1     -0.4436
     32 C         2.905021   6.958415   -0.122703 C.3        1 UNL1     0.3143
     33 C         3.917404   5.966651   -0.659079 C.2        1 UNL1     0.2504
     34 C         4.911748   10.581232   -0.868104 C.3        1 UNL1     -0.0327
     35 O         2.552072   6.522439   1.195858 O.2        1 UNL1     -0.4528
     36 C         -0.689347   4.583735   0.818078 C.3        1 UNL1     0.0854
     37 C         -0.996948   3.321623   -0.076336 C.3        1 UNL1     0.0236
     38 C         -1.591008   2.060293   0.716055 C.3        1 UNL1     0.1131
     39 C         -0.857476   1.532115   2.014218 C.3        1 UNL1     0.0200
     40 C         0.80418   1.389738   2.046875 C.3        1 UNL1     0.0661
     41 C         1.758891   0.621465   0.87389 C.3        1 UNL1     0.0091
     42 C         3.462827   0.986629   0.300603 C.3        1 UNL1     0.0661
     43 C         7.462228   7.471746   -3.939376 C.2        1 UNL1     0.2131
     44 O         7.856664   8.369805   -4.660935 O.2        1 UNL1     -0.2851
     45 O         7.121326   9.982881   -2.738179 O.3        1 UNL1     -0.5056
     46 O         3.936344   4.76329   -0.52711 O.2        1 UNL1     -0.2836
     47 C         5.570445   1.333299   1.899221 C.3        1 UNL1     -0.0566
     48 O         3.914471   -0.423542   0.381547 O.3        1 UNL1     -0.3909
     49 C         0.918687   0.385977   -0.361463 C.3        1 UNL1     -0.0577
     50 O         1.404123   2.609147   2.435248 O.3        1 UNL1     -0.3910
     51 O         -0.805818   4.395322   2.21033 O.3        1 UNL1     -0.3753
     52 C         0.041781   3.161877   -1.234124 C.3        1 UNL1     -0.0564
     53 O         -2.196338   1.019213   -0.179519 O.3        1 UNL1     -0.4608
     54 C         -2.395349   -0.295704   0.151115 C.2        1 UNL1     0.3042
     55 O         -1.749888   -1.269072   -0.235889 O.2        1 UNL1     -0.2512
     56 C         -3.503903   -0.505268   1.143034 C.3        1 UNL1     0.0332
     57 C         -1.573173   2.201109   3.278496 C.3        1 UNL1     -0.0567
     58 C         1.823724   7.200318   -1.201503 C.3        1 UNL1     0.0210
     59 C         -1.11737   5.574533   2.950778 C.3        1 UNL1     0.0372
     60 C         0.63724   5.215066   0.579856 C.2        1 UNL1     -0.0208
     61 C         1.553878   5.652949   1.444018 C.2        1 UNL1     0.0882
     62 H         4.688467   2.743859   0.551351 H        1 UNL1     0.0365
     63 H         6.328818   3.621807   -0.290483 H        1 UNL1     0.0576
     64 H         8.333389   1.50569   -1.290742 H        1 UNL1     0.0615
     65 H         8.259257   4.622741   -1.481405 H        1 UNL1     0.0622
     66 H         -1.437011   5.328529   0.51095 H        1 UNL1     0.0645
     67 H         -1.866257   3.628703   -0.683431 H        1 UNL1     0.0362
     68 H         -2.53705   2.49577   1.072267 H        1 UNL1     0.0741
     69 H         -1.18607   0.520608   2.212431 H        1 UNL1     0.0359
     70 H         0.921799   0.730571   2.928195 H        1 UNL1     0.0600
     71 H         1.806624   -0.399155   1.301692 H        1 UNL1     0.0348
     72 H         3.361144   1.475693   1.280293 H        1 UNL1     0.0602
     73 H         0.749348   5.411415   -0.45751 H        1 UNL1     0.0628
     74 H         1.542317   5.44341   2.514157 H        1 UNL1     0.1022
     75 H         10.881525   2.2644   -3.55181 H        1 UNL1     0.0279
     76 H         10.804323   3.522753   -4.719666 H        1 UNL1     0.0279
     77 H         11.893111   3.621729   -3.277431 H        1 UNL1     0.0279
     78 H         9.0304   4.817928   -5.073061 H        1 UNL1     0.1553
     79 H         7.75643   3.344144   -4.710868 H        1 UNL1     0.1484
     80 H         4.007662   2.73393   -4.828643 H        1 UNL1     0.0317
     81 H         4.737019   4.262488   -5.299254 H        1 UNL1     0.0317
     82 H         6.645628   3.075366   -6.413551 H        1 UNL1     0.0428
     83 H         5.087369   2.595592   -7.048649 H        1 UNL1     0.0428
     84 H         6.886016   -0.034625   -4.229081 H        1 UNL1     0.0428
     85 H         7.790962   1.377616   -4.648334 H        1 UNL1     0.0428
     86 H         6.509551   1.449598   -2.508788 H        1 UNL1     0.0317
     87 H         5.010043   1.21867   -3.283706 H        1 UNL1     0.0317
     88 H         7.224566   0.888247   -7.417394 H        1 UNL1     0.0429
     89 H         6.868491   -0.599048   -6.535691 H        1 UNL1     0.0429
     90 H         4.322631   0.284255   -7.347479 H        1 UNL1     0.0308
     91 H         6.312062   0.890682   -9.612256 H        1 UNL1     0.0233
     92 H         4.540005   0.811724   -9.782766 H        1 UNL1     0.0233
     93 H         5.278352   2.074908   -8.821614 H        1 UNL1     0.0233
     94 H         4.579777   -1.511627   -9.12611 H        1 UNL1     0.0233
     95 H         6.241407   -1.704114   -8.546228 H        1 UNL1     0.0233
     96 H         4.876271   -2.001239   -7.44527 H        1 UNL1     0.0233
     97 H         4.067522   10.533085   -0.186785 H        1 UNL1     0.0280
     98 H         5.701684   11.121438   -0.330113 H        1 UNL1     0.0280
     99 H         4.612352   11.173924   -1.747975 H        1 UNL1     0.0280
     100 H         6.654806   10.760429   -2.989972 H        1 UNL1     0.2922
     101 H         4.688055   1.002925   2.44685 H        1 UNL1     0.0236
     102 H         6.120404   2.104896   2.436963 H        1 UNL1     0.0236
     103 H         6.242382   0.458833   1.897433 H        1 UNL1     0.0236
     104 H         4.250915   -0.574011   1.286607 H        1 UNL1     0.2098
     105 H         0.700092   1.283996   -0.933816 H        1 UNL1     0.0234
     106 H         1.286955   -0.401044   -1.019418 H        1 UNL1     0.0234
     107 H         0.0   -0.0   0.0 H        1 UNL1     0.0234
     108 H         1.25458   3.249062   1.712812 H        1 UNL1     0.2098
     109 H         1.070225   3.063135   -0.859603 H        1 UNL1     0.0234
     110 H         -0.185934   2.326009   -1.904357 H        1 UNL1     0.0234
     111 H         0.049081   4.038763   -1.895157 H        1 UNL1     0.0234
     112 H         -3.595992   -1.569817   1.378831 H        1 UNL1     0.0342
     113 H         -3.361126   0.084298   2.047396 H        1 UNL1     0.0342
     114 H         -4.445388   -0.180422   0.679087 H        1 UNL1     0.0342
     115 H         -2.660542   2.04439   3.26254 H        1 UNL1     0.0234
     116 H         -1.20349   1.840244   4.240349 H        1 UNL1     0.0234
     117 H         -1.51678   3.303259   3.283748 H        1 UNL1     0.0234
     118 H         0.922049   7.681746   -0.784112 H        1 UNL1     0.0309
     119 H         2.186272   7.791963   -2.048094 H        1 UNL1     0.0309
     120 H         1.437995   6.267286   -1.626673 H        1 UNL1     0.0309
     121 H         -0.739315   5.437426   3.963513 H        1 UNL1     0.0524
     122 H         -0.630463   6.471556   2.533274 H        1 UNL1     0.0524
     123 H         -2.191852   5.733307   2.970076 H        1 UNL1     0.0524
@<TRIPOS>BOND
     1     1     2    1
     2     1    42    1
     3     2     3    2
     4     3     4    1
     5     4     5    2
     6     5     7    1
     7     6    75    1
     8     6    76    1
     9     6    77    1
    10     7     9   am
    11     9    10    1
    12    10    11    2
    13    10    43    1
    14    11    14    1
    15    11    15    1
    16    12    13   ar
    17    12    27   ar
    18    12    43    1
    19    13    14    1
    20    13    30   ar
    21    14    17    2
    22    15    16    1
    23    16    17    1
    24    16    18    1
    25    16    22    1
    26    18    19    1
    27    19    20    1
    28    20    21    1
    29    21    22    1
    30    23    24    1
    31    23    88    1
    32    23    89    1
    33    24    25    1
    34    24    26    1
    35    24    90    1
    36    25    91    1
    37    25    92    1
    38    25    93    1
    39    26    94    1
    40    26    95    1
    41    26    96    1
    42    27    28   ar
    43    28    29   ar
    44    29    30   ar
    45    29    31    1
    46    30    33    1
    47    31    32    1
    48    32    33    1
    49    32    35    1
    50    34    97    1
    51    34    98    1
    52    34    99    1
    53    35    61    1
    54    36    37    1
    55    36    60    1
    56    37    38    1
    57    38    39    1
    58    39    40    1
    59    40    41    1
    60    41    42    1
    61    45   100    1
    62    47   101    1
    63    47   102    1
    64    47   103    1
    65    48   104    1
    66    49   105    1
    67    49   106    1
    68    49   107    1
    69    50   108    1
    70    51    59    1
    71    52   109    1
    72    52   110    1
    73    52   111    1
    74    53    54    1
    75    54    55    2
    76    54    56    1
    77    56   112    1
    78    56   113    1
    79    56   114    1
    80    57   115    1
    81    57   116    1
    82    57   117    1
    83    58   118    1
    84    58   119    1
    85    58   120    1
    86    59   121    1
    87    59   122    1
    88    59   123    1
    89    60    61    2
    90     1    47    1
    91     1    62    1
    92     2    63    1
    93     3    64    1
    94     4    65    1
    95     5     6    1
    96     7     8    2
    97     9    78    1
    98    15    79    1
    99    18    80    1
   100    18    81    1
   101    19    82    1
   102    19    83    1
   103    20    23    1
   104    21    84    1
   105    21    85    1
   106    22    86    1
   107    22    87    1
   108    27    45    1
   109    28    34    1
   110    32    58    1
   111    33    46    2
   112    36    51    1
   113    36    66    1
   114    37    52    1
   115    37    67    1
   116    38    53    1
   117    38    68    1
   118    42    48    1
   119    42    72    1
   120    43    44    2
   121    60    73    1
   122    61    74    1
   123    39    69    1
   124    39    57    1
   125    40    70    1
   126    40    50    1
   127    41    71    1
   128    41    49    1
