@<TRIPOS>MOLECULE
*****
 123 128 0 0 0
SMALL
GASTEIGER

@<TRIPOS>ATOM
     1 C         3.786613   -2.229721   -2.339932 C.3        1 UNL1     0.0009
     2 C         4.119195   -2.818338   -4.066187 C.2        1 UNL1     -0.0787
     3 C         4.379939   -3.895648   -4.997563 C.2        1 UNL1     -0.0649
     4 C         4.498052   -3.807344   -6.68416 C.2        1 UNL1     -0.0542
     5 C         4.437294   -4.544475   -7.892475 C.2        1 UNL1     0.0115
     6 C         4.378355   -5.977919   -8.488367 C.3        1 UNL1     -0.0348
     7 C         4.221706   -3.755504   -9.273791 C.2        1 UNL1     0.2441
     8 O         5.131562   -3.528237   -10.059309 O.2        1 UNL1     -0.2702
     9 N         2.877984   -3.57252   -9.644033 N.am        1 UNL1     -0.2772
     10 C         2.381751   -2.413274   -9.093374 C.2        1 UNL1     0.1049
     11 C         1.958235   -2.496607   -7.845211 C.2        1 UNL1     0.0801
     12 C         2.888669   0.018616   -8.799642 C.ar        1 UNL1     0.0753
     13 C         2.618637   -0.173592   -7.407253 C.ar        1 UNL1     0.0305
     14 C         2.017046   -1.407962   -6.907784 C.2        1 UNL1     0.0924
     15 N         1.734475   -3.578227   -7.07934 N.pl3        1 UNL1     -0.3170
     16 C         1.11601   -3.132304   -5.859132 C.3        1 UNL1     0.1275
     17 N         1.610539   -1.717724   -5.679889 N.2        1 UNL1     -0.2557
     18 C         -0.382736   -3.026567   -6.124237 C.3        1 UNL1     0.0016
     19 C         -0.883718   -4.371096   -6.627078 C.3        1 UNL1     0.0026
     20 N         -0.600097   -5.382865   -5.618657 N.3        1 UNL1     -0.3018
     21 C         0.811166   -5.516004   -5.251261 C.3        1 UNL1     0.0026
     22 C         1.292374   -4.155237   -4.744658 C.3        1 UNL1     0.0016
     23 C         -1.295697   -6.631095   -5.860949 C.3        1 UNL1     0.0012
     24 C         -1.084352   -7.092719   -7.311464 C.3        1 UNL1     -0.0339
     25 C         -0.091722   -8.264302   -7.389796 C.3        1 UNL1     -0.0615
     26 C         -2.418526   -7.447146   -7.944821 C.3        1 UNL1     -0.0615
     27 C         3.34905   1.240912   -9.283544 C.ar        1 UNL1     0.1347
     28 C         3.538415   2.351466   -8.480512 C.ar        1 UNL1     0.0342
     29 C         3.313018   2.124626   -7.106138 C.ar        1 UNL1     0.1435
     30 C         2.886377   0.895331   -6.602123 C.ar        1 UNL1     0.0774
     31 O         3.34856   3.134906   -6.209992 O.3        1 UNL1     -0.4436
     32 C         2.630082   2.635571   -5.071867 C.3        1 UNL1     0.3143
     33 C         2.710437   1.126503   -5.183543 C.2        1 UNL1     0.2504
     34 C         3.78571   3.754597   -8.960271 C.3        1 UNL1     -0.0327
     35 O         3.371427   3.007496   -3.903393 O.2        1 UNL1     -0.4528
     36 C         0.808175   3.432391   -1.136211 C.3        1 UNL1     0.0854
     37 C         -0.243333   2.394539   -0.584201 C.3        1 UNL1     0.0236
     38 C         -0.169027   2.13277   0.996211 C.3        1 UNL1     0.1131
     39 C         1.218192   1.779031   1.669086 C.3        1 UNL1     0.0200
     40 C         2.255146   0.691079   0.945536 C.3        1 UNL1     0.0661
     41 C         1.837828   -0.8513   0.375868 C.3        1 UNL1     0.0091
     42 C         2.500971   -1.818484   -1.034877 C.3        1 UNL1     0.0661
     43 C         2.577007   -1.099453   -9.724329 C.2        1 UNL1     0.2131
     44 O         2.38479   -0.952251   -10.917695 O.2        1 UNL1     -0.2851
     45 O         3.631052   1.330784   -10.6451 O.3        1 UNL1     -0.5056
     46 O         2.662501   0.301798   -4.298434 O.2        1 UNL1     -0.2836
     47 C         5.09033   -2.264238   -1.497843 C.3        1 UNL1     -0.0566
     48 O         2.654262   -3.069176   -0.252964 O.3        1 UNL1     -0.3909
     49 C         0.330375   -0.957147   0.313594 C.3        1 UNL1     -0.0577
     50 O         3.091252   1.341791   0.010002 O.3        1 UNL1     -0.3910
     51 O         1.786424   3.865713   -0.218229 O.3        1 UNL1     -0.3753
     52 C         -0.515036   1.242314   -1.605722 C.3        1 UNL1     -0.0564
     53 O         -1.376441   1.431353   1.546202 O.3        1 UNL1     -0.4608
     54 C         -1.361614   0.471044   2.523707 C.2        1 UNL1     0.3042
     55 O         -1.895954   0.523863   3.630744 O.2        1 UNL1     -0.2512
     56 C         -0.644726   -0.786138   2.120869 C.3        1 UNL1     0.0332
     57 C         1.840995   3.139549   2.234136 C.3        1 UNL1     -0.0567
     58 C         1.158167   3.071904   -5.257897 C.3        1 UNL1     0.0210
     59 C         3.1241   3.494643   -0.548071 C.3        1 UNL1     0.0372
     60 C         1.531889   3.002025   -2.363478 C.2        1 UNL1     -0.0208
     61 C         2.827124   3.073905   -2.673225 C.2        1 UNL1     0.0882
     62 H         3.69115   -1.208134   -2.727175 H        1 UNL1     0.0365
     63 H         4.176224   -1.866513   -4.598396 H        1 UNL1     0.0576
     64 H         4.362608   -4.941402   -4.682597 H        1 UNL1     0.0615
     65 H         4.588038   -2.736036   -6.883369 H        1 UNL1     0.0622
     66 H         0.207078   4.304094   -1.430937 H        1 UNL1     0.0645
     67 H         -1.210487   2.918949   -0.674572 H        1 UNL1     0.0362
     68 H         -0.422172   3.139729   1.36155 H        1 UNL1     0.0741
     69 H         1.031617   1.323918   2.632658 H        1 UNL1     0.0359
     70 H         2.920571   0.464384   1.800451 H        1 UNL1     0.0600
     71 H         2.060899   -1.456771   1.276202 H        1 UNL1     0.0348
     72 H         3.260614   -1.05717   -0.805396 H        1 UNL1     0.0602
     73 H         0.826227   2.703969   -3.098633 H        1 UNL1     0.0628
     74 H         3.618716   3.313876   -1.962568 H        1 UNL1     0.1022
     75 H         4.692371   -5.970197   -9.559987 H        1 UNL1     0.0279
     76 H         5.051488   -6.712634   -8.052299 H        1 UNL1     0.0279
     77 H         3.351515   -6.364252   -8.566127 H        1 UNL1     0.0279
     78 H         2.317325   -4.344545   -9.289468 H        1 UNL1     0.1553
     79 H         1.608871   -4.503877   -7.445849 H        1 UNL1     0.1484
     80 H         -0.889746   -2.731266   -5.197681 H        1 UNL1     0.0317
     81 H         -0.595574   -2.244515   -6.86095 H        1 UNL1     0.0317
     82 H         -0.432038   -4.638237   -7.59379 H        1 UNL1     0.0428
     83 H         -1.953944   -4.272829   -6.811496 H        1 UNL1     0.0428
     84 H         0.987269   -6.225048   -4.436364 H        1 UNL1     0.0428
     85 H         1.414431   -5.908544   -6.081503 H        1 UNL1     0.0428
     86 H         2.28241   -4.322098   -4.362593 H        1 UNL1     0.0317
     87 H         0.722341   -3.864039   -3.853949 H        1 UNL1     0.0317
     88 H         -0.877846   -7.39116   -5.187898 H        1 UNL1     0.0429
     89 H         -2.364076   -6.544611   -5.624601 H        1 UNL1     0.0429
     90 H         -0.685966   -6.257597   -7.899745 H        1 UNL1     0.0308
     91 H         -0.23655   -8.847857   -8.303903 H        1 UNL1     0.0233
     92 H         0.938076   -7.901047   -7.355589 H        1 UNL1     0.0233
     93 H         -0.198883   -8.959435   -6.548284 H        1 UNL1     0.0233
     94 H         -3.125627   -6.619306   -7.8243 H        1 UNL1     0.0233
     95 H         -2.287995   -7.625792   -9.015806 H        1 UNL1     0.0233
     96 H         -2.852101   -8.341222   -7.488084 H        1 UNL1     0.0233
     97 H         4.539025   3.791252   -9.741554 H        1 UNL1     0.0280
     98 H         2.884086   4.209775   -9.390552 H        1 UNL1     0.0280
     99 H         4.130419   4.377105   -8.118395 H        1 UNL1     0.0280
     100 H         2.902495   1.594409   -11.179262 H        1 UNL1     0.2922
     101 H         5.917035   -1.862695   -2.083486 H        1 UNL1     0.0236
     102 H         5.315265   -3.251753   -1.096343 H        1 UNL1     0.0236
     103 H         5.029488   -1.608432   -0.613304 H        1 UNL1     0.0236
     104 H         3.594737   -3.331014   -0.296762 H        1 UNL1     0.2098
     105 H         -0.039385   -1.687579   -0.401638 H        1 UNL1     0.0234
     106 H         -0.156802   -1.093584   1.27898 H        1 UNL1     0.0234
     107 H         -0.0   0.0   0.0 H        1 UNL1     0.0234
     108 H         2.526094   1.936668   -0.519606 H        1 UNL1     0.2098
     109 H         -0.162669   0.268558   -1.237825 H        1 UNL1     0.0234
     110 H         -1.568086   1.164751   -1.896948 H        1 UNL1     0.0234
     111 H         0.011892   1.409982   -2.554501 H        1 UNL1     0.0234
     112 H         -0.005153   -1.12861   2.940018 H        1 UNL1     0.0342
     113 H         -1.33459   -1.569327   1.810149 H        1 UNL1     0.0342
     114 H         0.001834   -0.552773   1.263743 H        1 UNL1     0.0342
     115 H         2.547951   2.955224   3.054761 H        1 UNL1     0.0234
     116 H         2.359939   3.736469   1.481518 H        1 UNL1     0.0234
     117 H         1.100577   3.788677   2.73249 H        1 UNL1     0.0234
     118 H         1.044136   3.809949   -6.071097 H        1 UNL1     0.0309
     119 H         0.480597   2.231553   -5.439312 H        1 UNL1     0.0309
     120 H         0.761689   3.597548   -4.382334 H        1 UNL1     0.0309
     121 H         3.266923   2.461446   -0.232696 H        1 UNL1     0.0524
     122 H         3.315373   3.53998   -1.63315 H        1 UNL1     0.0524
     123 H         3.830685   4.143299   -0.038094 H        1 UNL1     0.0524
@<TRIPOS>BOND
     1     1     2    1
     2     1    42    1
     3     2     3    2
     4     3     4    1
     5     4     5    2
     6     5     7    1
     7     6    75    1
     8     6    76    1
     9     6    77    1
    10     7     9   am
    11     9    10    1
    12    10    11    2
    13    10    43    1
    14    11    14    1
    15    11    15    1
    16    12    13   ar
    17    12    27   ar
    18    12    43    1
    19    13    14    1
    20    13    30   ar
    21    14    17    2
    22    15    16    1
    23    16    17    1
    24    16    18    1
    25    16    22    1
    26    18    19    1
    27    19    20    1
    28    20    21    1
    29    21    22    1
    30    23    24    1
    31    23    88    1
    32    23    89    1
    33    24    25    1
    34    24    26    1
    35    24    90    1
    36    25    91    1
    37    25    92    1
    38    25    93    1
    39    26    94    1
    40    26    95    1
    41    26    96    1
    42    27    28   ar
    43    28    29   ar
    44    29    30   ar
    45    29    31    1
    46    30    33    1
    47    31    32    1
    48    32    33    1
    49    32    35    1
    50    34    97    1
    51    34    98    1
    52    34    99    1
    53    35    61    1
    54    36    37    1
    55    36    60    1
    56    37    38    1
    57    38    39    1
    58    39    40    1
    59    40    41    1
    60    41    42    1
    61    45   100    1
    62    47   101    1
    63    47   102    1
    64    47   103    1
    65    48   104    1
    66    49   105    1
    67    49   106    1
    68    49   107    1
    69    50   108    1
    70    51    59    1
    71    52   109    1
    72    52   110    1
    73    52   111    1
    74    53    54    1
    75    54    55    2
    76    54    56    1
    77    56   112    1
    78    56   113    1
    79    56   114    1
    80    57   115    1
    81    57   116    1
    82    57   117    1
    83    58   118    1
    84    58   119    1
    85    58   120    1
    86    59   121    1
    87    59   122    1
    88    59   123    1
    89    60    61    2
    90     1    47    1
    91     1    62    1
    92     2    63    1
    93     3    64    1
    94     4    65    1
    95     5     6    1
    96     7     8    2
    97     9    78    1
    98    15    79    1
    99    18    80    1
   100    18    81    1
   101    19    82    1
   102    19    83    1
   103    20    23    1
   104    21    84    1
   105    21    85    1
   106    22    86    1
   107    22    87    1
   108    27    45    1
   109    28    34    1
   110    32    58    1
   111    33    46    2
   112    36    51    1
   113    36    66    1
   114    37    52    1
   115    37    67    1
   116    38    53    1
   117    38    68    1
   118    42    48    1
   119    42    72    1
   120    43    44    2
   121    60    73    1
   122    61    74    1
   123    39    69    1
   124    39    57    1
   125    40    70    1
   126    40    50    1
   127    41    71    1
   128    41    49    1
