@<TRIPOS>MOLECULE
*****
 123 128 0 0 0
SMALL
GASTEIGER

@<TRIPOS>ATOM
     1 C         3.702994   -2.130917   2.202444 C.3        1 UNL1     0.0009
     2 C         4.615917   -3.743856   2.157294 C.2        1 UNL1     -0.0787
     3 C         4.718857   -5.139679   2.527602 C.2        1 UNL1     -0.0649
     4 C         5.87778   -6.266876   2.024929 C.2        1 UNL1     -0.0542
     5 C         6.173025   -7.645581   1.886802 C.2        1 UNL1     0.0115
     6 C         5.692581   -9.076511   2.25414 C.3        1 UNL1     -0.0348
     7 C         7.362657   -8.090757   0.905179 C.2        1 UNL1     0.2441
     8 O         8.46952   -8.420928   1.308127 O.2        1 UNL1     -0.2702
     9 N         6.971931   -8.327098   -0.424343 N.am        1 UNL1     -0.2772
     10 C         7.024627   -7.162115   -1.154657 C.2        1 UNL1     0.1049
     11 C         5.975489   -6.365895   -1.056855 C.2        1 UNL1     0.0801
     12 C         8.503443   -5.213181   -1.676283 C.ar        1 UNL1     0.0753
     13 C         7.385593   -4.379136   -1.354739 C.ar        1 UNL1     0.0305
     14 C         6.047561   -4.933717   -1.161965 C.2        1 UNL1     0.0924
     15 N         4.763283   -6.59583   -0.523739 N.pl3        1 UNL1     -0.3170
     16 C         3.92831   -5.463765   -0.826236 C.3        1 UNL1     0.1275
     17 N         4.890965   -4.309082   -0.959371 N.2        1 UNL1     -0.2557
     18 C         3.344794   -5.691199   -2.217453 C.3        1 UNL1     0.0016
     19 C         2.619098   -7.02718   -2.228006 C.3        1 UNL1     0.0026
     20 N         1.570046   -6.997652   -1.21823 N.3        1 UNL1     -0.3018
     21 C         2.027389   -6.723348   0.145575 C.3        1 UNL1     0.0026
     22 C         2.749358   -5.374824   0.133821 C.3        1 UNL1     0.0016
     23 C         0.632947   -8.09587   -1.346314 C.3        1 UNL1     0.0012
     24 C         -0.237772   -7.917507   -2.600026 C.3        1 UNL1     -0.0339
     25 C         0.320083   -8.7151   -3.790278 C.3        1 UNL1     -0.0615
     26 C         -1.67526   -8.301084   -2.294615 C.3        1 UNL1     -0.0615
     27 C         9.748806   -4.666655   -1.977113 C.ar        1 UNL1     0.1347
     28 C         9.987028   -3.304742   -2.027055 C.ar        1 UNL1     0.0342
     29 C         8.884646   -2.504362   -1.659212 C.ar        1 UNL1     0.1435
     30 C         7.641021   -3.038954   -1.32035 C.ar        1 UNL1     0.0774
     31 O         8.925036   -1.158107   -1.763965 O.3        1 UNL1     -0.4436
     32 C         7.547692   -0.753464   -1.771601 C.3        1 UNL1     0.3143
     33 C         6.799228   -1.882887   -1.093059 C.2        1 UNL1     0.2504
     34 C         11.218108   -2.644797   -2.582946 C.3        1 UNL1     -0.0327
     35 O         7.435717   0.392723   -0.918975 O.2        1 UNL1     -0.4528
     36 C         4.581817   2.462   -2.326611 C.3        1 UNL1     0.0854
     37 C         3.080774   2.048312   -2.578114 C.3        1 UNL1     0.0236
     38 C         1.992412   2.993211   -1.874993 C.3        1 UNL1     0.1131
     39 C         2.121686   3.328274   -0.334444 C.3        1 UNL1     0.0200
     40 C         2.508312   2.131212   0.761001 C.3        1 UNL1     0.0661
     41 C         1.756244   0.615611   0.883305 C.3        1 UNL1     0.0091
     42 C         2.435949   -1.013232   1.383581 C.3        1 UNL1     0.0661
     43 C         8.270362   -6.675993   -1.766363 C.2        1 UNL1     0.2131
     44 O         8.990008   -7.435074   -2.389774 O.2        1 UNL1     -0.2851
     45 O         10.795623   -5.54952   -2.234333 O.3        1 UNL1     -0.5056
     46 O         5.75453   -1.83505   -0.483001 O.2        1 UNL1     -0.2836
     47 C         3.864544   -1.458555   3.59234 C.3        1 UNL1     -0.0566
     48 O         1.320637   -1.32164   2.310985 O.3        1 UNL1     -0.3909
     49 C         0.921663   0.383498   -0.35649 C.3        1 UNL1     -0.0577
     50 O         3.909937   1.985286   0.869977 O.3        1 UNL1     -0.3910
     51 O         4.787784   3.491129   -1.385387 O.3        1 UNL1     -0.3753
     52 C         2.90974   0.495836   -2.652368 C.3        1 UNL1     -0.0564
     53 O         0.600507   2.801784   -2.402518 O.3        1 UNL1     -0.4608
     54 C         -0.551464   3.172749   -1.759651 C.2        1 UNL1     0.3042
     55 O         -1.412532   2.433677   -1.284075 O.2        1 UNL1     -0.2512
     56 C         -0.6983   4.659079   -1.598486 C.3        1 UNL1     0.0332
     57 C         2.883648   4.728826   -0.207782 C.3        1 UNL1     -0.0567
     58 C         7.118271   -0.691329   -3.255941 C.3        1 UNL1     0.0210
     59 C         5.979712   4.251088   -1.579386 C.3        1 UNL1     0.0372
     60 C         5.486785   1.343755   -1.944875 C.2        1 UNL1     -0.0208
     61 C         6.418036   1.271845   -0.992853 C.2        1 UNL1     0.0882
     62 H         4.474272   -1.698174   1.553926 H        1 UNL1     0.0365
     63 H         5.51942   -3.451389   1.618207 H        1 UNL1     0.0576
     64 H         3.917751   -5.649187   3.067731 H        1 UNL1     0.0615
     65 H         6.660925   -5.65178   1.573458 H        1 UNL1     0.0622
     66 H         4.937644   2.817381   -3.303922 H        1 UNL1     0.0645
     67 H         2.914493   2.278138   -3.644927 H        1 UNL1     0.0362
     68 H         2.204096   3.938339   -2.397913 H        1 UNL1     0.0741
     69 H         1.164493   3.680046   0.026731 H        1 UNL1     0.0359
     70 H         2.208124   2.629996   1.702362 H        1 UNL1     0.0600
     71 H         0.973312   0.84816   1.631567 H        1 UNL1     0.0348
     72 H         3.137713   -0.260064   1.770337 H        1 UNL1     0.0602
     73 H         5.391698   0.55973   -2.65446 H        1 UNL1     0.0628
     74 H         6.54149   2.004305   -0.194418 H        1 UNL1     0.1022
     75 H         4.750351   -9.032298   2.851871 H        1 UNL1     0.0279
     76 H         5.413715   -9.722498   1.424681 H        1 UNL1     0.0279
     77 H         6.370206   -9.585809   2.954954 H        1 UNL1     0.0279
     78 H         6.00952   -8.657919   -0.44435 H        1 UNL1     0.1553
     79 H         4.394503   -7.513475   -0.353847 H        1 UNL1     0.1484
     80 H         2.665901   -4.864707   -2.4599 H        1 UNL1     0.0317
     81 H         4.132625   -5.683177   -2.978314 H        1 UNL1     0.0317
     82 H         3.309103   -7.866662   -2.057495 H        1 UNL1     0.0428
     83 H         2.212379   -7.170183   -3.229594 H        1 UNL1     0.0428
     84 H         1.212971   -6.627515   0.870385 H        1 UNL1     0.0428
     85 H         2.643036   -7.542222   0.542742 H        1 UNL1     0.0428
     86 H         2.951262   -5.145501   1.163692 H        1 UNL1     0.0317
     87 H         2.056351   -4.581421   -0.17171 H        1 UNL1     0.0317
     88 H         1.208074   -9.025311   -1.449572 H        1 UNL1     0.0429
     89 H         0.014007   -8.199026   -0.445733 H        1 UNL1     0.0429
     90 H         -0.262461   -6.855631   -2.872097 H        1 UNL1     0.0308
     91 H         0.404841   -9.779398   -3.551141 H        1 UNL1     0.0233
     92 H         -0.317858   -8.594655   -4.668989 H        1 UNL1     0.0233
     93 H         1.319267   -8.375601   -4.088955 H        1 UNL1     0.0233
     94 H         -2.255491   -8.360388   -3.221788 H        1 UNL1     0.0233
     95 H         -1.705952   -9.283093   -1.814326 H        1 UNL1     0.0233
     96 H         -2.151684   -7.570453   -1.634942 H        1 UNL1     0.0233
     97 H         11.148466   -1.561521   -2.553051 H        1 UNL1     0.0280
     98 H         12.119795   -2.903826   -2.012753 H        1 UNL1     0.0280
     99 H         11.360516   -2.953106   -3.63164 H        1 UNL1     0.0280
     100 H         11.236832   -5.405756   -3.053045 H        1 UNL1     0.2922
     101 H         3.360304   -0.492431   3.59424 H        1 UNL1     0.0236
     102 H         4.903105   -1.378476   3.911655 H        1 UNL1     0.0236
     103 H         3.368542   -2.034682   4.391248 H        1 UNL1     0.0236
     104 H         1.595086   -1.041149   3.205956 H        1 UNL1     0.2098
     105 H         0.708663   1.282569   -0.929302 H        1 UNL1     0.0234
     106 H         1.290946   -0.404148   -1.013126 H        1 UNL1     0.0234
     107 H         0.0   -0.0   0.0 H        1 UNL1     0.0234
     108 H         4.23703   1.671241   0.005018 H        1 UNL1     0.2098
     109 H         3.232743   -0.00293   -1.727915 H        1 UNL1     0.0234
     110 H         1.888015   0.186647   -2.897774 H        1 UNL1     0.0234
     111 H         3.519836   0.05935   -3.454372 H        1 UNL1     0.0234
     112 H         -1.624396   4.885495   -1.06143 H        1 UNL1     0.0342
     113 H         0.161412   5.103835   -1.099557 H        1 UNL1     0.0342
     114 H         -0.771068   5.10715   -2.599037 H        1 UNL1     0.0342
     115 H         2.344664   5.535142   -0.724056 H        1 UNL1     0.0234
     116 H         3.050375   5.051998   0.821689 H        1 UNL1     0.0234
     117 H         3.854004   4.750791   -0.733014 H        1 UNL1     0.0234
     118 H         7.405923   0.262832   -3.731166 H        1 UNL1     0.0309
     119 H         7.511268   -1.521087   -3.851976 H        1 UNL1     0.0309
     120 H         6.030158   -0.717419   -3.380185 H        1 UNL1     0.0309
     121 H         6.824884   3.571452   -1.473859 H        1 UNL1     0.0524
     122 H         6.033912   4.694165   -2.587742 H        1 UNL1     0.0524
     123 H         6.043195   5.045605   -0.841276 H        1 UNL1     0.0524
@<TRIPOS>BOND
     1     1     2    1
     2     1    42    1
     3     2     3    2
     4     3     4    1
     5     4     5    2
     6     5     7    1
     7     6    75    1
     8     6    76    1
     9     6    77    1
    10     7     9   am
    11     9    10    1
    12    10    11    2
    13    10    43    1
    14    11    14    1
    15    11    15    1
    16    12    13   ar
    17    12    27   ar
    18    12    43    1
    19    13    14    1
    20    13    30   ar
    21    14    17    2
    22    15    16    1
    23    16    17    1
    24    16    18    1
    25    16    22    1
    26    18    19    1
    27    19    20    1
    28    20    21    1
    29    21    22    1
    30    23    24    1
    31    23    88    1
    32    23    89    1
    33    24    25    1
    34    24    26    1
    35    24    90    1
    36    25    91    1
    37    25    92    1
    38    25    93    1
    39    26    94    1
    40    26    95    1
    41    26    96    1
    42    27    28   ar
    43    28    29   ar
    44    29    30   ar
    45    29    31    1
    46    30    33    1
    47    31    32    1
    48    32    33    1
    49    32    35    1
    50    34    97    1
    51    34    98    1
    52    34    99    1
    53    35    61    1
    54    36    37    1
    55    36    60    1
    56    37    38    1
    57    38    39    1
    58    39    40    1
    59    40    41    1
    60    41    42    1
    61    45   100    1
    62    47   101    1
    63    47   102    1
    64    47   103    1
    65    48   104    1
    66    49   105    1
    67    49   106    1
    68    49   107    1
    69    50   108    1
    70    51    59    1
    71    52   109    1
    72    52   110    1
    73    52   111    1
    74    53    54    1
    75    54    55    2
    76    54    56    1
    77    56   112    1
    78    56   113    1
    79    56   114    1
    80    57   115    1
    81    57   116    1
    82    57   117    1
    83    58   118    1
    84    58   119    1
    85    58   120    1
    86    59   121    1
    87    59   122    1
    88    59   123    1
    89    60    61    2
    90     1    47    1
    91     1    62    1
    92     2    63    1
    93     3    64    1
    94     4    65    1
    95     5     6    1
    96     7     8    2
    97     9    78    1
    98    15    79    1
    99    18    80    1
   100    18    81    1
   101    19    82    1
   102    19    83    1
   103    20    23    1
   104    21    84    1
   105    21    85    1
   106    22    86    1
   107    22    87    1
   108    27    45    1
   109    28    34    1
   110    32    58    1
   111    33    46    2
   112    36    51    1
   113    36    66    1
   114    37    52    1
   115    37    67    1
   116    38    53    1
   117    38    68    1
   118    42    48    1
   119    42    72    1
   120    43    44    2
   121    60    73    1
   122    61    74    1
   123    39    69    1
   124    39    57    1
   125    40    70    1
   126    40    50    1
   127    41    71    1
   128    41    49    1
