@<TRIPOS>MOLECULE
*****
 123 128 0 0 0
SMALL
GASTEIGER

@<TRIPOS>ATOM
     1 C         5.167562   1.746579   0.495005 C.3        1 UNL1     0.0009
     2 C         6.605092   2.55238   -0.354247 C.2        1 UNL1     -0.0787
     3 C         7.88734   2.453889   -1.019219 C.2        1 UNL1     -0.0649
     4 C         8.765743   3.688898   -1.773884 C.2        1 UNL1     -0.0542
     5 C         9.78646   3.981428   -2.711775 C.2        1 UNL1     0.0115
     6 C         10.91494   3.355803   -3.576905 C.3        1 UNL1     -0.0348
     7 C         9.882762   5.464835   -3.317761 C.2        1 UNL1     0.2441
     8 O         10.706741   6.286037   -2.939327 O.2        1 UNL1     -0.2702
     9 N         9.133341   5.672464   -4.488833 N.am        1 UNL1     -0.2772
     10 C         7.850588   6.059559   -4.175744 C.2        1 UNL1     0.1049
     11 C         7.004236   5.088393   -3.88463 C.2        1 UNL1     0.0801
     12 C         6.551971   7.66629   -2.765303 C.ar        1 UNL1     0.0753
     13 C         5.79219   6.538539   -2.318629 C.ar        1 UNL1     0.0305
     14 C         5.908996   5.232992   -2.964349 C.2        1 UNL1     0.0924
     15 N         7.126424   3.759415   -4.044056 N.pl3        1 UNL1     -0.3170
     16 C         5.856134   3.160655   -3.730844 C.3        1 UNL1     0.1275
     17 N         5.219514   4.115839   -2.751017 N.2        1 UNL1     -0.2557
     18 C         5.004084   3.220457   -4.995019 C.3        1 UNL1     0.0016
     19 C         5.759384   2.536413   -6.123379 C.3        1 UNL1     0.0026
     20 N         6.02874   1.158084   -5.737781 N.3        1 UNL1     -0.3018
     21 C         6.791273   0.997002   -4.498038 C.3        1 UNL1     0.0026
     22 C         6.012116   1.687485   -3.377305 C.3        1 UNL1     0.0016
     23 C         6.4736   0.338713   -6.847454 C.3        1 UNL1     0.0012
     24 C         5.318657   0.090002   -7.830311 C.3        1 UNL1     -0.0339
     25 C         5.345326   1.09353   -8.994904 C.3        1 UNL1     -0.0615
     26 C         5.357784   -1.344567   -8.327566 C.3        1 UNL1     -0.0615
     27 C         6.347486   8.933899   -2.225421 C.ar        1 UNL1     0.1347
     28 C         5.387948   9.203534   -1.265925 C.ar        1 UNL1     0.0342
     29 C         4.685652   8.069222   -0.806271 C.ar        1 UNL1     0.1435
     30 C         4.904893   6.787263   -1.311974 C.ar        1 UNL1     0.0774
     31 O         3.644185   8.182941   0.046618 O.3        1 UNL1     -0.4436
     32 C         2.922102   6.950453   -0.096361 C.3        1 UNL1     0.3143
     33 C         3.935328   5.957106   -0.628197 C.2        1 UNL1     0.2504
     34 C         4.941385   10.569681   -0.825103 C.3        1 UNL1     -0.0327
     35 O         2.560491   6.513495   1.219525 O.2        1 UNL1     -0.4528
     36 C         -0.683084   4.582724   0.820233 C.3        1 UNL1     0.0854
     37 C         -0.988348   3.322534   -0.077686 C.3        1 UNL1     0.0236
     38 C         -1.589884   2.061491   0.709504 C.3        1 UNL1     0.1131
     39 C         -0.865127   1.529873   2.011187 C.3        1 UNL1     0.0200
     40 C         0.795982   1.383653   2.053317 C.3        1 UNL1     0.0661
     41 C         1.755752   0.614792   0.884853 C.3        1 UNL1     0.0091
     42 C         3.463824   0.976837   0.321991 C.3        1 UNL1     0.0661
     43 C         7.502608   7.458546   -3.885746 C.2        1 UNL1     0.2131
     44 O         7.903284   8.35668   -4.603765 O.2        1 UNL1     -0.2851
     45 O         7.160443   9.968819   -2.683109 O.3        1 UNL1     -0.5056
     46 O         3.950757   4.753526   -0.497771 O.2        1 UNL1     -0.2836
     47 C         5.562885   1.316515   1.933319 C.3        1 UNL1     -0.0566
     48 O         3.911774   -0.434472   0.403627 O.3        1 UNL1     -0.3909
     49 C         0.922219   0.382905   -0.355689 C.3        1 UNL1     -0.0577
     50 O         1.396431   2.601158   2.446846 O.3        1 UNL1     -0.3910
     51 O         -0.808087   4.392686   2.211524 O.3        1 UNL1     -0.3753
     52 C         0.056737   3.161986   -1.229629 C.3        1 UNL1     -0.0564
     53 O         -2.192361   1.023015   -0.191004 O.3        1 UNL1     -0.4608
     54 C         -2.415394   -0.286985   0.143787 C.2        1 UNL1     0.3042
     55 O         -1.843354   -1.28007   -0.303863 O.2        1 UNL1     -0.2512
     56 C         -3.445491   -0.465   1.22264 C.3        1 UNL1     0.0332
     57 C         -1.586645   2.198784   3.272197 C.3        1 UNL1     -0.0567
     58 C         1.847657   7.196294   -1.1811 C.3        1 UNL1     0.0210
     59 C         -1.152178   5.565246   2.948118 C.3        1 UNL1     0.0372
     60 C         0.646302   5.211342   0.5906 C.2        1 UNL1     -0.0208
     61 C         1.558891   5.645953   1.46068 C.2        1 UNL1     0.0882
     62 H         4.691985   2.730918   0.582276 H        1 UNL1     0.0365
     63 H         6.339205   3.606255   -0.248794 H        1 UNL1     0.0576
     64 H         8.344738   1.48692   -1.240275 H        1 UNL1     0.0615
     65 H         8.278821   4.604389   -1.42709 H        1 UNL1     0.0622
     66 H         -1.427248   5.329642   0.509782 H        1 UNL1     0.0645
     67 H         -1.853406   3.632426   -0.689407 H        1 UNL1     0.0362
     68 H         -2.536989   2.498646   1.060803 H        1 UNL1     0.0741
     69 H         -1.197173   0.518852   2.206097 H        1 UNL1     0.0359
     70 H         0.906966   0.723021   2.934401 H        1 UNL1     0.0600
     71 H         1.798668   -0.406514   1.311525 H        1 UNL1     0.0348
     72 H         3.357555   1.464801   1.301743 H        1 UNL1     0.0602
     73 H         0.764895   5.408843   -0.445826 H        1 UNL1     0.0628
     74 H         1.540622   5.434987   2.530445 H        1 UNL1     0.1022
     75 H         10.958884   2.250463   -3.42418 H        1 UNL1     0.0279
     76 H         10.801983   3.438949   -4.655514 H        1 UNL1     0.0279
     77 H         11.919943   3.660008   -3.249599 H        1 UNL1     0.0279
     78 H         9.071301   4.802692   -5.013927 H        1 UNL1     0.1553
     79 H         7.791889   3.331334   -4.661175 H        1 UNL1     0.1484
     80 H         4.042489   2.729855   -4.801596 H        1 UNL1     0.0317
     81 H         4.778055   4.257379   -5.265859 H        1 UNL1     0.0317
     82 H         6.690408   3.06741   -6.370659 H        1 UNL1     0.0428
     83 H         5.134784   2.592064   -7.015471 H        1 UNL1     0.0428
     84 H         6.910988   -0.046087   -4.189096 H        1 UNL1     0.0428
     85 H         7.821575   1.364649   -4.601139 H        1 UNL1     0.0428
     86 H         6.527898   1.436654   -2.468988 H        1 UNL1     0.0317
     87 H         5.032404   1.210209   -3.252934 H        1 UNL1     0.0317
     88 H         7.270195   0.880339   -7.374116 H        1 UNL1     0.0429
     89 H         6.905605   -0.607334   -6.496541 H        1 UNL1     0.0429
     90 H         4.365523   0.196943   -7.29898 H        1 UNL1     0.0308
     91 H         6.294549   1.048395   -9.537159 H        1 UNL1     0.0233
     92 H         4.525381   0.899958   -9.690483 H        1 UNL1     0.0233
     93 H         5.221189   2.129357   -8.656543 H        1 UNL1     0.0233
     94 H         4.661949   -1.473627   -9.163623 H        1 UNL1     0.0233
     95 H         6.362269   -1.589145   -8.684151 H        1 UNL1     0.0233
     96 H         5.08266   -2.048518   -7.537169 H        1 UNL1     0.0233
     97 H         4.147587   10.520012   -0.085746 H        1 UNL1     0.0280
     98 H         5.754087   11.139264   -0.355692 H        1 UNL1     0.0280
     99 H         4.56845   11.13461   -1.695085 H        1 UNL1     0.0280
     100 H         6.693901   10.719447   -3.006404 H        1 UNL1     0.2922
     101 H         4.699598   0.88308   2.437825 H        1 UNL1     0.0236
     102 H         6.013646   2.121515   2.512777 H        1 UNL1     0.0236
     103 H         6.318812   0.513541   1.932442 H        1 UNL1     0.0236
     104 H         4.33074   -0.560874   1.277389 H        1 UNL1     0.2098
     105 H         0.710273   1.281982   -0.928882 H        1 UNL1     0.0234
     106 H         1.29168   -0.405081   -1.011817 H        1 UNL1     0.0234
     107 H         0.0   -0.0   0.0 H        1 UNL1     0.0234
     108 H         1.198556   3.259683   1.753334 H        1 UNL1     0.2098
     109 H         1.081301   3.047994   -0.848859 H        1 UNL1     0.0234
     110 H         -0.175635   2.335169   -1.909423 H        1 UNL1     0.0234
     111 H         0.078669   4.044973   -1.882161 H        1 UNL1     0.0234
     112 H         -3.5714   -1.528963   1.445069 H        1 UNL1     0.0342
     113 H         -3.197075   0.095565   2.122585 H        1 UNL1     0.0342
     114 H         -4.405021   -0.083592   0.847148 H        1 UNL1     0.0342
     115 H         -2.650944   1.930769   3.323407 H        1 UNL1     0.0234
     116 H         -1.135775   1.937793   4.231701 H        1 UNL1     0.0234
     117 H         -1.646637   3.29912   3.212164 H        1 UNL1     0.0234
     118 H         0.946535   7.683445   -0.769193 H        1 UNL1     0.0309
     119 H         2.217762   7.784365   -2.026912 H        1 UNL1     0.0309
     120 H         1.458966   6.264608   -1.606526 H        1 UNL1     0.0309
     121 H         -0.347577   6.287519   2.812851 H        1 UNL1     0.0524
     122 H         -2.081935   6.031569   2.581878 H        1 UNL1     0.0524
     123 H         -1.268581   5.326705   4.001513 H        1 UNL1     0.0524
@<TRIPOS>BOND
     1     1     2    1
     2     1    42    1
     3     2     3    2
     4     3     4    1
     5     4     5    2
     6     5     7    1
     7     6    75    1
     8     6    76    1
     9     6    77    1
    10     7     9   am
    11     9    10    1
    12    10    11    2
    13    10    43    1
    14    11    14    1
    15    11    15    1
    16    12    13   ar
    17    12    27   ar
    18    12    43    1
    19    13    14    1
    20    13    30   ar
    21    14    17    2
    22    15    16    1
    23    16    17    1
    24    16    18    1
    25    16    22    1
    26    18    19    1
    27    19    20    1
    28    20    21    1
    29    21    22    1
    30    23    24    1
    31    23    88    1
    32    23    89    1
    33    24    25    1
    34    24    26    1
    35    24    90    1
    36    25    91    1
    37    25    92    1
    38    25    93    1
    39    26    94    1
    40    26    95    1
    41    26    96    1
    42    27    28   ar
    43    28    29   ar
    44    29    30   ar
    45    29    31    1
    46    30    33    1
    47    31    32    1
    48    32    33    1
    49    32    35    1
    50    34    97    1
    51    34    98    1
    52    34    99    1
    53    35    61    1
    54    36    37    1
    55    36    60    1
    56    37    38    1
    57    38    39    1
    58    39    40    1
    59    40    41    1
    60    41    42    1
    61    45   100    1
    62    47   101    1
    63    47   102    1
    64    47   103    1
    65    48   104    1
    66    49   105    1
    67    49   106    1
    68    49   107    1
    69    50   108    1
    70    51    59    1
    71    52   109    1
    72    52   110    1
    73    52   111    1
    74    53    54    1
    75    54    55    2
    76    54    56    1
    77    56   112    1
    78    56   113    1
    79    56   114    1
    80    57   115    1
    81    57   116    1
    82    57   117    1
    83    58   118    1
    84    58   119    1
    85    58   120    1
    86    59   121    1
    87    59   122    1
    88    59   123    1
    89    60    61    2
    90     1    47    1
    91     1    62    1
    92     2    63    1
    93     3    64    1
    94     4    65    1
    95     5     6    1
    96     7     8    2
    97     9    78    1
    98    15    79    1
    99    18    80    1
   100    18    81    1
   101    19    82    1
   102    19    83    1
   103    20    23    1
   104    21    84    1
   105    21    85    1
   106    22    86    1
   107    22    87    1
   108    27    45    1
   109    28    34    1
   110    32    58    1
   111    33    46    2
   112    36    51    1
   113    36    66    1
   114    37    52    1
   115    37    67    1
   116    38    53    1
   117    38    68    1
   118    42    48    1
   119    42    72    1
   120    43    44    2
   121    60    73    1
   122    61    74    1
   123    39    69    1
   124    39    57    1
   125    40    70    1
   126    40    50    1
   127    41    71    1
   128    41    49    1
