@<TRIPOS>MOLECULE
*****
 123 128 0 0 0
SMALL
GASTEIGER

@<TRIPOS>ATOM
     1 C         5.164789   1.75328   0.500237 C.3        1 UNL1     0.0009
     2 C         6.601943   2.561453   -0.347395 C.2        1 UNL1     -0.0787
     3 C         7.884879   2.465031   -1.011342 C.2        1 UNL1     -0.0649
     4 C         8.76225   3.70161   -1.764634 C.2        1 UNL1     -0.0542
     5 C         9.783358   3.995997   -2.701518 C.2        1 UNL1     0.0115
     6 C         10.913404   3.372338   -3.566023 C.3        1 UNL1     -0.0348
     7 C         9.87817   5.479844   -3.306662 C.2        1 UNL1     0.2441
     8 O         10.700724   6.30196   -2.927115 O.2        1 UNL1     -0.2702
     9 N         9.129451   5.687067   -4.478255 N.am        1 UNL1     -0.2772
     10 C         7.845916   6.072273   -4.166043 C.2        1 UNL1     0.1049
     11 C         7.00063   5.099819   -3.876139 C.2        1 UNL1     0.0801
     12 C         6.543955   7.676528   -2.755867 C.ar        1 UNL1     0.0753
     13 C         5.785319   6.547525   -2.31041 C.ar        1 UNL1     0.0305
     14 C         5.904425   5.242469   -2.956702 C.2        1 UNL1     0.0924
     15 N         7.124741   3.771089   -4.036145 N.pl3        1 UNL1     -0.3170
     16 C         5.854996   3.170457   -3.724306 C.3        1 UNL1     0.1275
     17 N         5.216269   4.124279   -2.744523 N.2        1 UNL1     -0.2557
     18 C         5.003926   3.229763   -4.989164 C.3        1 UNL1     0.0016
     19 C         5.761092   2.547318   -6.117241 C.3        1 UNL1     0.0026
     20 N         6.031981   1.169155   -5.732127 N.3        1 UNL1     -0.3018
     21 C         6.793692   1.008461   -4.491827 C.3        1 UNL1     0.0026
     22 C         6.012666   1.697318   -3.371393 C.3        1 UNL1     0.0016
     23 C         6.478874   0.350955   -6.841847 C.3        1 UNL1     0.0012
     24 C         5.325092   0.101195   -7.825799 C.3        1 UNL1     -0.0339
     25 C         5.351385   1.105358   -8.989854 C.3        1 UNL1     -0.0615
     26 C         5.366568   -1.333063   -8.323758 C.3        1 UNL1     -0.0615
     27 C         6.33731   8.943582   -2.215506 C.ar        1 UNL1     0.1347
     28 C         5.376606   9.21143   -1.256676 C.ar        1 UNL1     0.0342
     29 C         4.675454   8.075937   -0.798194 C.ar        1 UNL1     0.1435
     30 C         4.896845   6.794535   -1.304371 C.ar        1 UNL1     0.0774
     31 O         3.63312   8.187815   0.053879 O.3        1 UNL1     -0.4436
     32 C         2.912818   6.95443   -0.090339 C.3        1 UNL1     0.3143
     33 C         3.927826   5.962722   -0.621835 C.2        1 UNL1     0.2504
     34 C         4.927834   10.576748   -0.815527 C.3        1 UNL1     -0.0327
     35 O         2.550693   6.516307   1.225019 O.2        1 UNL1     -0.4528
     36 C         -0.689943   4.581377   0.822014 C.3        1 UNL1     0.0854
     37 C         -0.992757   3.32124   -0.076808 C.3        1 UNL1     0.0236
     38 C         -1.593253   2.058983   0.709229 C.3        1 UNL1     0.1131
     39 C         -0.868872   1.527671   2.011247 C.3        1 UNL1     0.0200
     40 C         0.792397   1.383666   2.054694 C.3        1 UNL1     0.0661
     41 C         1.75418   0.6167   0.886642 C.3        1 UNL1     0.0091
     42 C         3.462234   0.981334   0.325399 C.3        1 UNL1     0.0661
     43 C         7.49581   7.470641   -3.875618 C.2        1 UNL1     0.2131
     44 O         7.895877   8.369683   -4.59284 O.2        1 UNL1     -0.2851
     45 O         7.149256   9.979832   -2.67198 O.3        1 UNL1     -0.5056
     46 O         3.944767   4.759097   -0.492014 O.2        1 UNL1     -0.2836
     47 C         5.559484   1.323008   1.938661 C.3        1 UNL1     -0.0566
     48 O         3.912016   -0.429412   0.406685 O.3        1 UNL1     -0.3909
     49 C         0.922001   0.384329   -0.354719 C.3        1 UNL1     -0.0577
     50 O         1.390875   2.601775   2.449353 O.3        1 UNL1     -0.3910
     51 O         -0.815856   4.390455   2.213102 O.3        1 UNL1     -0.3753
     52 C         0.053508   3.162692   -1.227956 C.3        1 UNL1     -0.0564
     53 O         -2.193576   1.020161   -0.192318 O.3        1 UNL1     -0.4608
     54 C         -2.414735   -0.290413   0.141471 C.2        1 UNL1     0.3042
     55 O         -1.840487   -1.282256   -0.306105 O.2        1 UNL1     -0.2512
     56 C         -3.445735   -0.470818   1.219064 C.3        1 UNL1     0.0332
     57 C         -1.592347   2.194961   3.271994 C.3        1 UNL1     -0.0567
     58 C         1.838953   7.199382   -1.175853 C.3        1 UNL1     0.0210
     59 C         -1.162143   5.562171   2.950009 C.3        1 UNL1     0.0372
     60 C         0.638788   5.211902   0.593819 C.2        1 UNL1     -0.0208
     61 C         1.55006   5.647294   1.464888 C.2        1 UNL1     0.0882
     62 H         4.687813   2.736932   0.587615 H        1 UNL1     0.0365
     63 H         6.334549   3.614915   -0.241624 H        1 UNL1     0.0576
     64 H         8.343764   1.498793   -1.232511 H        1 UNL1     0.0615
     65 H         8.273805   4.616266   -1.417779 H        1 UNL1     0.0622
     66 H         -1.434852   5.327452   0.511323 H        1 UNL1     0.0645
     67 H         -1.857718   3.630281   -0.689095 H        1 UNL1     0.0362
     68 H         -2.54124   2.494681   1.059958 H        1 UNL1     0.0741
     69 H         -1.199719   0.516104   2.205358 H        1 UNL1     0.0359
     70 H         0.903531   0.722731   2.935532 H        1 UNL1     0.0600
     71 H         1.798114   -0.404767   1.312824 H        1 UNL1     0.0348
     72 H         3.354487   1.46865   1.305311 H        1 UNL1     0.0602
     73 H         0.757983   5.410097   -0.442405 H        1 UNL1     0.0628
     74 H         1.531179   5.435753   2.534529 H        1 UNL1     0.1022
     75 H         10.958709   2.266979   -3.41383 H        1 UNL1     0.0279
     76 H         10.80124   3.455887   -4.644683 H        1 UNL1     0.0279
     77 H         11.917722   3.677727   -3.237718 H        1 UNL1     0.0279
     78 H         9.069024   4.817482   -5.003848 H        1 UNL1     0.1553
     79 H         7.791299   3.344222   -4.652925 H        1 UNL1     0.1484
     80 H         4.042832   2.737768   -4.796801 H        1 UNL1     0.0317
     81 H         4.776728   4.266519   -5.259661 H        1 UNL1     0.0317
     82 H         6.691608   3.079696   -6.363468 H        1 UNL1     0.0428
     83 H         5.137166   2.602588   -7.009828 H        1 UNL1     0.0428
     84 H         6.914553   -0.034625   -4.18332 H        1 UNL1     0.0428
     85 H         7.823584   1.377548   -4.593874 H        1 UNL1     0.0428
     86 H         6.528025   1.446713   -2.462773 H        1 UNL1     0.0317
     87 H         5.033494   1.218658   -3.248089 H        1 UNL1     0.0317
     88 H         7.27518   0.893924   -7.367562 H        1 UNL1     0.0429
     89 H         6.911859   -0.59469   -6.491057 H        1 UNL1     0.0429
     90 H         4.37137   0.206579   -7.295214 H        1 UNL1     0.0308
     91 H         6.302304   1.063959   -9.529429 H        1 UNL1     0.0233
     92 H         4.534136   0.909103   -9.687848 H        1 UNL1     0.0233
     93 H         5.222487   2.140564   -8.651374 H        1 UNL1     0.0233
     94 H         4.671608   -1.46263   -9.160465 H        1 UNL1     0.0233
     95 H         6.37168   -1.576106   -8.679626 H        1 UNL1     0.0233
     96 H         5.09173   -2.037791   -7.533954 H        1 UNL1     0.0233
     97 H         4.133485   10.52563   -0.076862 H        1 UNL1     0.0280
     98 H         5.739375   11.147183   -0.345142 H        1 UNL1     0.0280
     99 H         4.554868   11.141622   -1.685531 H        1 UNL1     0.0280
     100 H         6.681979   10.730259   -2.994678 H        1 UNL1     0.2922
     101 H         4.69636   0.888152   2.44222 H        1 UNL1     0.0236
     102 H         6.008675   2.128316   2.51891 H        1 UNL1     0.0236
     103 H         6.316493   0.521054   1.938005 H        1 UNL1     0.0236
     104 H         4.330419   -0.5557   1.280733 H        1 UNL1     0.2098
     105 H         0.709324   1.283416   -0.927627 H        1 UNL1     0.0234
     106 H         1.293072   -0.402821   -1.010941 H        1 UNL1     0.0234
     107 H         0.0   -0.0   0.0 H        1 UNL1     0.0234
     108 H         1.192695   3.260391   1.756014 H        1 UNL1     0.2098
     109 H         1.077906   3.049884   -0.846385 H        1 UNL1     0.0234
     110 H         -0.177179   2.335913   -1.90837 H        1 UNL1     0.0234
     111 H         0.074798   4.046044   -1.880016 H        1 UNL1     0.0234
     112 H         -3.567806   -1.534926   1.442936 H        1 UNL1     0.0342
     113 H         -3.20086   0.09209   2.118517 H        1 UNL1     0.0342
     114 H         -4.406191   -0.093747   0.841562 H        1 UNL1     0.0342
     115 H         -2.661788   1.945643   3.308371 H        1 UNL1     0.0234
     116 H         -1.156998   1.91485   4.233274 H        1 UNL1     0.0234
     117 H         -1.631919   3.296818   3.224184 H        1 UNL1     0.0234
     118 H         0.936829   7.685108   -0.764451 H        1 UNL1     0.0309
     119 H         2.208974   7.788386   -2.021051 H        1 UNL1     0.0309
     120 H         1.451873   6.267393   -1.602082 H        1 UNL1     0.0309
     121 H         -0.358403   6.285596   2.815789 H        1 UNL1     0.0524
     122 H         -2.09222   6.02743   2.583229 H        1 UNL1     0.0524
     123 H         -1.279107   5.322931   4.003184 H        1 UNL1     0.0524
@<TRIPOS>BOND
     1     1     2    1
     2     1    42    1
     3     2     3    2
     4     3     4    1
     5     4     5    2
     6     5     7    1
     7     6    75    1
     8     6    76    1
     9     6    77    1
    10     7     9   am
    11     9    10    1
    12    10    11    2
    13    10    43    1
    14    11    14    1
    15    11    15    1
    16    12    13   ar
    17    12    27   ar
    18    12    43    1
    19    13    14    1
    20    13    30   ar
    21    14    17    2
    22    15    16    1
    23    16    17    1
    24    16    18    1
    25    16    22    1
    26    18    19    1
    27    19    20    1
    28    20    21    1
    29    21    22    1
    30    23    24    1
    31    23    88    1
    32    23    89    1
    33    24    25    1
    34    24    26    1
    35    24    90    1
    36    25    91    1
    37    25    92    1
    38    25    93    1
    39    26    94    1
    40    26    95    1
    41    26    96    1
    42    27    28   ar
    43    28    29   ar
    44    29    30   ar
    45    29    31    1
    46    30    33    1
    47    31    32    1
    48    32    33    1
    49    32    35    1
    50    34    97    1
    51    34    98    1
    52    34    99    1
    53    35    61    1
    54    36    37    1
    55    36    60    1
    56    37    38    1
    57    38    39    1
    58    39    40    1
    59    40    41    1
    60    41    42    1
    61    45   100    1
    62    47   101    1
    63    47   102    1
    64    47   103    1
    65    48   104    1
    66    49   105    1
    67    49   106    1
    68    49   107    1
    69    50   108    1
    70    51    59    1
    71    52   109    1
    72    52   110    1
    73    52   111    1
    74    53    54    1
    75    54    55    2
    76    54    56    1
    77    56   112    1
    78    56   113    1
    79    56   114    1
    80    57   115    1
    81    57   116    1
    82    57   117    1
    83    58   118    1
    84    58   119    1
    85    58   120    1
    86    59   121    1
    87    59   122    1
    88    59   123    1
    89    60    61    2
    90     1    47    1
    91     1    62    1
    92     2    63    1
    93     3    64    1
    94     4    65    1
    95     5     6    1
    96     7     8    2
    97     9    78    1
    98    15    79    1
    99    18    80    1
   100    18    81    1
   101    19    82    1
   102    19    83    1
   103    20    23    1
   104    21    84    1
   105    21    85    1
   106    22    86    1
   107    22    87    1
   108    27    45    1
   109    28    34    1
   110    32    58    1
   111    33    46    2
   112    36    51    1
   113    36    66    1
   114    37    52    1
   115    37    67    1
   116    38    53    1
   117    38    68    1
   118    42    48    1
   119    42    72    1
   120    43    44    2
   121    60    73    1
   122    61    74    1
   123    39    69    1
   124    39    57    1
   125    40    70    1
   126    40    50    1
   127    41    71    1
   128    41    49    1
