@<TRIPOS>MOLECULE
*****
 123 128 0 0 0
SMALL
GASTEIGER

@<TRIPOS>ATOM
     1 C         0.586552   0.739507   4.01842 C.3        1 UNL1     0.0009
     2 C         1.200846   -0.433871   5.315672 C.2        1 UNL1     -0.0787
     3 C         0.937739   -1.39131   6.3693 C.2        1 UNL1     -0.0649
     4 C         2.055877   -2.336412   7.219539 C.2        1 UNL1     -0.0542
     5 C         2.228538   -3.494548   8.017028 C.2        1 UNL1     0.0115
     6 C         1.47514   -4.609008   8.794004 C.3        1 UNL1     -0.0348
     7 C         3.703042   -4.104709   8.191761 C.2        1 UNL1     0.2441
     8 O         4.377176   -3.937892   9.198856 O.2        1 UNL1     -0.2702
     9 N         4.064614   -5.05773   7.223687 N.am        1 UNL1     -0.2772
     10 C         4.62639   -4.441246   6.129303 C.2        1 UNL1     0.1049
     11 C         3.781863   -3.953349   5.238824 C.2        1 UNL1     0.0801
     12 C         6.353764   -2.755777   5.471498 C.ar        1 UNL1     0.0753
     13 C         5.335674   -2.138211   4.677322 C.ar        1 UNL1     0.0305
     14 C         4.052906   -2.793832   4.43295 C.2        1 UNL1     0.0924
     15 N         2.456584   -4.138661   5.113036 N.pl3        1 UNL1     -0.3170
     16 C         2.042386   -3.525775   3.878911 C.3        1 UNL1     0.1275
     17 N         3.043712   -2.419698   3.651619 N.2        1 UNL1     -0.2557
     18 C         2.276745   -4.544187   2.767329 C.3        1 UNL1     0.0016
     19 C         1.531304   -5.823051   3.114336 C.3        1 UNL1     0.0026
     20 N         0.114523   -5.515662   3.253155 N.3        1 UNL1     -0.3018
     21 C         -0.205632   -4.499202   4.257485 C.3        1 UNL1     0.0026
     22 C         0.55002   -3.221918   3.88677 C.3        1 UNL1     0.0016
     23 C         -0.719065   -6.700852   3.286329 C.3        1 UNL1     0.0012
     24 C         -1.971295   -6.454815   4.142565 C.3        1 UNL1     -0.0339
     25 C         -2.405178   -7.7301   4.883815 C.3        1 UNL1     -0.0615
     26 C         -1.726891   -5.304998   5.104317 C.3        1 UNL1     -0.0615
     27 C         7.616156   -2.181465   5.600535 C.ar        1 UNL1     0.1347
     28 C         7.989018   -1.016895   4.953388 C.ar        1 UNL1     0.0342
     29 C         6.95538   -0.400753   4.216417 C.ar        1 UNL1     0.1435
     30 C         5.675304   -0.94552   4.107538 C.ar        1 UNL1     0.0774
     31 O         7.190466   0.68028   3.441104 O.3        1 UNL1     -0.4436
     32 C         6.085768   0.716707   2.525032 C.3        1 UNL1     0.3143
     33 C         4.973492   -0.046676   3.215178 C.2        1 UNL1     0.2504
     34 C         9.388645   -0.479603   4.841759 C.3        1 UNL1     -0.0327
     35 O         5.657712   2.080741   2.427928 O.2        1 UNL1     -0.4528
     36 C         4.248749   2.482504   -1.073714 C.3        1 UNL1     0.0854
     37 C         3.083346   1.685162   -1.776285 C.3        1 UNL1     0.0236
     38 C         1.896966   2.594329   -2.357372 C.3        1 UNL1     0.1131
     39 C         1.213958   3.67981   -1.431359 C.3        1 UNL1     0.0200
     40 C         0.820223   3.31581   0.148171 C.3        1 UNL1     0.0661
     41 C         -0.037977   1.94817   0.668424 C.3        1 UNL1     0.0091
     42 C         0.086585   0.986322   2.225579 C.3        1 UNL1     0.0661
     43 C         6.049525   -4.07423   6.080906 C.2        1 UNL1     0.2131
     44 O         6.904624   -4.867619   6.430301 O.2        1 UNL1     -0.2851
     45 O         8.535014   -2.822734   6.428734 O.3        1 UNL1     -0.5056
     46 O         3.776972   0.075228   3.076134 O.2        1 UNL1     -0.2836
     47 C         0.047787   2.037843   4.677234 C.3        1 UNL1     -0.0566
     48 O         -1.37781   0.95537   2.457324 O.3        1 UNL1     -0.3909
     49 C         -0.095495   0.947963   -0.464613 C.3        1 UNL1     -0.0577
     50 O         1.91869   3.552009   1.00567 O.3        1 UNL1     -0.3910
     51 O         4.026519   3.862188   -0.887923 O.3        1 UNL1     -0.3753
     52 C         2.812862   0.313176   -1.076682 C.3        1 UNL1     -0.0564
     53 O         0.995046   1.867049   -3.311274 O.3        1 UNL1     -0.4608
     54 C         -0.284146   1.457054   -3.04016 C.2        1 UNL1     0.3042
     55 O         -0.695832   0.300628   -2.956309 O.2        1 UNL1     -0.2512
     56 C         -1.23389   2.589082   -2.769583 C.3        1 UNL1     0.0332
     57 C         1.934348   5.079083   -1.716397 C.3        1 UNL1     -0.0567
     58 C         6.530259   -0.07336   1.272134 C.3        1 UNL1     0.0210
     59 C         5.070403   4.55019   -0.2003 C.3        1 UNL1     0.0372
     60 C         4.680449   1.936298   0.241753 C.2        1 UNL1     -0.0208
     61 C         4.940626   2.558086   1.392593 C.2        1 UNL1     0.0882
     62 H         1.626736   0.94071   3.735142 H        1 UNL1     0.0365
     63 H         2.277783   -0.26608   5.248425 H        1 UNL1     0.0576
     64 H         -0.077467   -1.717824   6.605632 H        1 UNL1     0.0615
     65 H         3.019822   -1.880792   6.977252 H        1 UNL1     0.0622
     66 H         5.10956   2.363256   -1.74664 H        1 UNL1     0.0645
     67 H         3.541858   1.30288   -2.704825 H        1 UNL1     0.0362
     68 H         2.456708   3.166119   -3.113194 H        1 UNL1     0.0741
     69 H         0.257046   3.949055   -1.858249 H        1 UNL1     0.0359
     70 H         0.117294   4.142838   0.364909 H        1 UNL1     0.0600
     71 H         -1.069797   2.350818   0.655066 H        1 UNL1     0.0348
     72 H         0.547192   1.962774   2.43462 H        1 UNL1     0.0602
     73 H         4.897467   0.902351   0.13637 H        1 UNL1     0.0628
     74 H         4.694075   3.599912   1.600072 H        1 UNL1     0.1022
     75 H         2.147931   -5.480697   8.979865 H        1 UNL1     0.0279
     76 H         1.135798   -4.357119   9.796236 H        1 UNL1     0.0279
     77 H         0.675363   -5.075194   8.200095 H        1 UNL1     0.0279
     78 H         3.234489   -5.552481   6.904013 H        1 UNL1     0.1553
     79 H         1.95794   -4.899627   5.536377 H        1 UNL1     0.1484
     80 H         1.927967   -4.122625   1.816853 H        1 UNL1     0.0317
     81 H         3.345348   -4.751071   2.64511 H        1 UNL1     0.0317
     82 H         1.92661   -6.289372   4.02877 H        1 UNL1     0.0428
     83 H         1.713454   -6.536021   2.309633 H        1 UNL1     0.0428
     84 H         -1.265933   -4.229464   4.286041 H        1 UNL1     0.0428
     85 H         0.007966   -4.849993   5.276621 H        1 UNL1     0.0428
     86 H         0.190619   -2.466831   4.561058 H        1 UNL1     0.0317
     87 H         0.219743   -2.862901   2.904365 H        1 UNL1     0.0317
     88 H         -1.036282   -6.924146   2.259291 H        1 UNL1     0.0429
     89 H         -0.158178   -7.572904   3.646475 H        1 UNL1     0.0429
     90 H         -2.793166   -6.132037   3.492521 H        1 UNL1     0.0308
     91 H         -1.551456   -8.226003   5.355347 H        1 UNL1     0.0233
     92 H         -3.151678   -7.498214   5.647081 H        1 UNL1     0.0233
     93 H         -2.869867   -8.464414   4.214726 H        1 UNL1     0.0233
     94 H         -0.94568   -5.573751   5.823565 H        1 UNL1     0.0233
     95 H         -1.389012   -4.422653   4.553621 H        1 UNL1     0.0233
     96 H         -2.633986   -5.048991   5.65894 H        1 UNL1     0.0233
     97 H         9.466472   0.535964   5.218318 H        1 UNL1     0.0280
     98 H         10.106892   -1.071784   5.423738 H        1 UNL1     0.0280
     99 H         9.701323   -0.481129   3.784723 H        1 UNL1     0.0280
     100 H         9.206585   -2.262459   6.776161 H        1 UNL1     0.2922
     101 H         -0.876688   2.342512   4.187154 H        1 UNL1     0.0236
     102 H         0.78194   2.842448   4.702012 H        1 UNL1     0.0236
     103 H         -0.233138   1.881177   5.732094 H        1 UNL1     0.0236
     104 H         -1.537374   1.248915   3.37566 H        1 UNL1     0.2098
     105 H         -1.02927   0.953117   -1.021255 H        1 UNL1     0.0234
     106 H         0.752256   0.985458   -1.148602 H        1 UNL1     0.0234
     107 H         0.0   0.0   0.0 H        1 UNL1     0.0234
     108 H         1.897644   2.865455   1.699909 H        1 UNL1     0.2098
     109 H         3.499902   -0.472183   -1.4215 H        1 UNL1     0.0234
     110 H         2.844734   0.373813   0.016501 H        1 UNL1     0.0234
     111 H         1.802807   -0.059404   -1.293291 H        1 UNL1     0.0234
     112 H         -0.853265   3.510227   -3.221204 H        1 UNL1     0.0342
     113 H         -2.241902   2.370306   -3.118713 H        1 UNL1     0.0342
     114 H         -1.284014   2.742566   -1.682801 H        1 UNL1     0.0342
     115 H         2.128395   5.2278   -2.787572 H        1 UNL1     0.0234
     116 H         1.375442   5.946793   -1.360374 H        1 UNL1     0.0234
     117 H         2.956314   5.139735   -1.304269 H        1 UNL1     0.0234
     118 H         5.66953   -0.460018   0.698857 H        1 UNL1     0.0309
     119 H         7.173818   0.507532   0.603853 H        1 UNL1     0.0309
     120 H         7.093231   -0.978763   1.523957 H        1 UNL1     0.0309
     121 H         4.787987   4.61243   0.850283 H        1 UNL1     0.0524
     122 H         6.031912   4.012955   -0.254316 H        1 UNL1     0.0524
     123 H         5.199545   5.546571   -0.613387 H        1 UNL1     0.0524
@<TRIPOS>BOND
     1     1     2    1
     2     1    42    1
     3     2     3    2
     4     3     4    1
     5     4     5    2
     6     5     7    1
     7     6    75    1
     8     6    76    1
     9     6    77    1
    10     7     9   am
    11     9    10    1
    12    10    11    2
    13    10    43    1
    14    11    14    1
    15    11    15    1
    16    12    13   ar
    17    12    27   ar
    18    12    43    1
    19    13    14    1
    20    13    30   ar
    21    14    17    2
    22    15    16    1
    23    16    17    1
    24    16    18    1
    25    16    22    1
    26    18    19    1
    27    19    20    1
    28    20    21    1
    29    21    22    1
    30    23    24    1
    31    23    88    1
    32    23    89    1
    33    24    25    1
    34    24    26    1
    35    24    90    1
    36    25    91    1
    37    25    92    1
    38    25    93    1
    39    26    94    1
    40    26    95    1
    41    26    96    1
    42    27    28   ar
    43    28    29   ar
    44    29    30   ar
    45    29    31    1
    46    30    33    1
    47    31    32    1
    48    32    33    1
    49    32    35    1
    50    34    97    1
    51    34    98    1
    52    34    99    1
    53    35    61    1
    54    36    37    1
    55    36    60    1
    56    37    38    1
    57    38    39    1
    58    39    40    1
    59    40    41    1
    60    41    42    1
    61    45   100    1
    62    47   101    1
    63    47   102    1
    64    47   103    1
    65    48   104    1
    66    49   105    1
    67    49   106    1
    68    49   107    1
    69    50   108    1
    70    51    59    1
    71    52   109    1
    72    52   110    1
    73    52   111    1
    74    53    54    1
    75    54    55    2
    76    54    56    1
    77    56   112    1
    78    56   113    1
    79    56   114    1
    80    57   115    1
    81    57   116    1
    82    57   117    1
    83    58   118    1
    84    58   119    1
    85    58   120    1
    86    59   121    1
    87    59   122    1
    88    59   123    1
    89    60    61    2
    90     1    47    1
    91     1    62    1
    92     2    63    1
    93     3    64    1
    94     4    65    1
    95     5     6    1
    96     7     8    2
    97     9    78    1
    98    15    79    1
    99    18    80    1
   100    18    81    1
   101    19    82    1
   102    19    83    1
   103    20    23    1
   104    21    84    1
   105    21    85    1
   106    22    86    1
   107    22    87    1
   108    27    45    1
   109    28    34    1
   110    32    58    1
   111    33    46    2
   112    36    51    1
   113    36    66    1
   114    37    52    1
   115    37    67    1
   116    38    53    1
   117    38    68    1
   118    42    48    1
   119    42    72    1
   120    43    44    2
   121    60    73    1
   122    61    74    1
   123    39    69    1
   124    39    57    1
   125    40    70    1
   126    40    50    1
   127    41    71    1
   128    41    49    1
