@<TRIPOS>MOLECULE
*****
 123 128 0 0 0
SMALL
GASTEIGER

@<TRIPOS>ATOM
     1 C         1.484899   4.194698   2.841957 C.3        1 UNL1     0.0009
     2 C         3.010736   5.126707   3.332076 C.2        1 UNL1     -0.0787
     3 C         3.945099   5.560593   4.349305 C.2        1 UNL1     -0.0649
     4 C         5.393252   6.411592   4.137147 C.2        1 UNL1     -0.0542
     5 C         6.640333   6.744809   4.720956 C.2        1 UNL1     0.0115
     6 C         7.469292   6.68545   6.033444 C.3        1 UNL1     -0.0348
     7 C         7.815912   7.298977   3.778671 C.2        1 UNL1     0.2441
     8 O         8.112818   8.483868   3.712306 O.2        1 UNL1     -0.2702
     9 N         8.651401   6.307887   3.234749 N.am        1 UNL1     -0.2772
     10 C         8.137194   5.846331   2.044842 C.2        1 UNL1     0.1049
     11 C         7.203499   4.916734   2.13586 C.2        1 UNL1     0.0801
     12 C         7.210905   6.616618   -0.147413 C.ar        1 UNL1     0.0753
     13 C         6.107022   5.739788   0.100015 C.ar        1 UNL1     0.0305
     14 C         6.133588   4.764214   1.187489 C.2        1 UNL1     0.0924
     15 N         6.81101   4.187361   3.194394 N.pl3        1 UNL1     -0.3170
     16 C         5.88036   3.195911   2.724107 C.3        1 UNL1     0.1275
     17 N         5.254076   3.816468   1.499199 N.2        1 UNL1     -0.2557
     18 C         6.69828   2.008231   2.225984 C.3        1 UNL1     0.0016
     19 C         7.604029   1.535103   3.351753 C.3        1 UNL1     0.0026
     20 N         6.777668   1.161189   4.491202 N.3        1 UNL1     -0.3018
     21 C         5.908255   2.222321   5.003539 C.3        1 UNL1     0.0026
     22 C         5.00398   2.679385   3.857556 C.3        1 UNL1     0.0016
     23 C         7.509546   0.421374   5.499998 C.3        1 UNL1     0.0012
     24 C         7.630887   -1.057773   5.101053 C.3        1 UNL1     -0.0339
     25 C         6.279726   -1.783004   5.212683 C.3        1 UNL1     -0.0615
     26 C         8.213952   -1.174069   3.703452 C.3        1 UNL1     -0.0615
     27 C         7.229219   7.458651   -1.256811 C.ar        1 UNL1     0.1347
     28 C         6.223375   7.483557   -2.206394 C.ar        1 UNL1     0.0342
     29 C         5.124319   6.647489   -1.916173 C.ar        1 UNL1     0.1435
     30 C         5.075783   5.825213   -0.789795 C.ar        1 UNL1     0.0774
     31 O         4.115559   6.477809   -2.798567 O.3        1 UNL1     -0.4436
     32 C         3.477325   5.258642   -2.389712 C.3        1 UNL1     0.3143
     33 C         3.830666   5.098441   -0.924892 C.2        1 UNL1     0.2504
     34 C         6.289113   8.169315   -3.542626 C.3        1 UNL1     -0.0327
     35 O         2.062464   5.47541   -2.45629 O.2        1 UNL1     -0.4528
     36 C         0.527684   2.094542   -3.245131 C.3        1 UNL1     0.0854
     37 C         0.650163   0.735722   -2.453847 C.3        1 UNL1     0.0236
     38 C         -0.747043   0.068327   -2.036543 C.3        1 UNL1     0.1131
     39 C         -1.838991   0.935097   -1.289128 C.3        1 UNL1     0.0200
     40 C         -1.39981   1.961714   -0.049929 C.3        1 UNL1     0.0661
     41 C         -0.430233   1.554691   1.281185 C.3        1 UNL1     0.0091
     42 C         0.751934   2.571547   2.247563 C.3        1 UNL1     0.0661
     43 C         8.376222   6.535128   0.767823 C.2        1 UNL1     0.2131
     44 O         9.495302   6.909669   0.46763 O.2        1 UNL1     -0.2851
     45 O         8.320017   8.313736   -1.399728 O.3        1 UNL1     -0.5056
     46 O         3.212269   4.5201   -0.059466 O.2        1 UNL1     -0.2836
     47 C         0.214309   4.973637   3.276512 C.3        1 UNL1     -0.0566
     48 O         0.226034   2.136521   3.564111 O.3        1 UNL1     -0.3909
     49 C         0.249335   0.232305   1.003736 C.3        1 UNL1     -0.0577
     50 O         -1.018951   3.224935   -0.556825 O.3        1 UNL1     -0.3910
     51 O         -0.769082   2.640145   -3.335391 O.3        1 UNL1     -0.3753
     52 C         1.892754   0.725094   -1.504741 C.3        1 UNL1     -0.0564
     53 O         -0.623941   -1.364846   -1.608537 O.3        1 UNL1     -0.4608
     54 C         0.553584   -2.033388   -1.39779 C.2        1 UNL1     0.3042
     55 O         1.665423   -1.745019   -1.838807 O.2        1 UNL1     -0.2512
     56 C         0.420239   -3.209308   -0.472508 C.3        1 UNL1     0.0332
     57 C         -2.852327   1.491705   -2.394349 C.3        1 UNL1     -0.0567
     58 C         4.151081   4.121604   -3.192661 C.3        1 UNL1     0.0210
     59 C         -1.183887   3.391559   -2.195576 C.3        1 UNL1     0.0372
     60 C         1.419569   3.184773   -2.764405 C.2        1 UNL1     -0.0208
     61 C         1.164958   4.474788   -2.541289 C.2        1 UNL1     0.0882
     62 H         1.677119   4.467378   1.797252 H        1 UNL1     0.0365
     63 H         3.28505   5.583771   2.37902 H        1 UNL1     0.0576
     64 H         3.867423   5.215241   5.382652 H        1 UNL1     0.0615
     65 H         5.333211   6.775631   3.107898 H        1 UNL1     0.0622
     66 H         0.867802   1.853369   -4.262088 H        1 UNL1     0.0645
     67 H         1.019345   0.018825   -3.20772 H        1 UNL1     0.0362
     68 H         -1.163651   -0.126736   -3.036498 H        1 UNL1     0.0741
     69 H         -2.54211   0.268919   -0.807217 H        1 UNL1     0.0359
     70 H         -2.389926   2.13646   0.412883 H        1 UNL1     0.0600
     71 H         -1.212278   1.249415   2.003798 H        1 UNL1     0.0348
     72 H         0.097979   3.283236   1.723009 H        1 UNL1     0.0602
     73 H         2.417667   2.825491   -2.72006 H        1 UNL1     0.0628
     74 H         0.165395   4.909723   -2.510586 H        1 UNL1     0.1022
     75 H         7.899325   7.688238   6.271189 H        1 UNL1     0.0279
     76 H         6.922495   6.443643   6.942076 H        1 UNL1     0.0279
     77 H         8.38012   6.077004   5.934006 H        1 UNL1     0.0279
     78 H         8.704051   5.516794   3.873089 H        1 UNL1     0.1553
     79 H         7.364974   4.063885   4.021927 H        1 UNL1     0.1484
     80 H         6.01476   1.214386   1.901368 H        1 UNL1     0.0317
     81 H         7.296133   2.284371   1.350787 H        1 UNL1     0.0317
     82 H         8.340387   2.302748   3.631773 H        1 UNL1     0.0428
     83 H         8.179403   0.689103   2.974555 H        1 UNL1     0.0428
     84 H         5.241209   1.893437   5.806468 H        1 UNL1     0.0428
     85 H         6.485263   3.041357   5.454714 H        1 UNL1     0.0428
     86 H         4.296489   3.356346   4.299334 H        1 UNL1     0.0317
     87 H         4.378616   1.84471   3.51795 H        1 UNL1     0.0317
     88 H         8.5186   0.847983   5.57148 H        1 UNL1     0.0429
     89 H         7.044513   0.52803   6.488503 H        1 UNL1     0.0429
     90 H         8.348372   -1.551709   5.766978 H        1 UNL1     0.0308
     91 H         6.367691   -2.834591   4.923669 H        1 UNL1     0.0233
     92 H         5.891917   -1.722521   6.232269 H        1 UNL1     0.0233
     93 H         5.512658   -1.338696   4.566903 H        1 UNL1     0.0233
     94 H         8.689312   -2.152217   3.572704 H        1 UNL1     0.0233
     95 H         7.418814   -1.08335   2.958141 H        1 UNL1     0.0233
     96 H         8.96226   -0.398564   3.517455 H        1 UNL1     0.0233
     97 H         5.874222   9.172216   -3.506762 H        1 UNL1     0.0280
     98 H         7.32127   8.283639   -3.898768 H        1 UNL1     0.0280
     99 H         5.719972   7.58625   -4.28506 H        1 UNL1     0.0280
     100 H         8.963003   8.245776   -0.715934 H        1 UNL1     0.2922
     101 H         -0.217809   5.482179   2.414935 H        1 UNL1     0.0236
     102 H         0.392859   5.655873   4.106968 H        1 UNL1     0.0236
     103 H         -0.582867   4.299957   3.632683 H        1 UNL1     0.0236
     104 H         0.961373   1.715564   4.05098 H        1 UNL1     0.2098
     105 H         1.333458   0.259899   1.079412 H        1 UNL1     0.0234
     106 H         -0.147459   -0.610986   1.568839 H        1 UNL1     0.0234
     107 H         0.0   -0.0   0.0 H        1 UNL1     0.0234
     108 H         -1.586112   3.893297   -0.126257 H        1 UNL1     0.2098
     109 H         2.149471   1.73101   -1.144266 H        1 UNL1     0.0234
     110 H         1.776609   0.048555   -0.65119 H        1 UNL1     0.0234
     111 H         2.790548   0.355002   -2.017522 H        1 UNL1     0.0234
     112 H         0.306621   -2.86064   0.558446 H        1 UNL1     0.0342
     113 H         -0.403042   -3.862901   -0.756883 H        1 UNL1     0.0342
     114 H         1.34674   -3.797157   -0.529039 H        1 UNL1     0.0342
     115 H         -3.811811   1.794737   -1.953043 H        1 UNL1     0.0234
     116 H         -2.468101   2.342425   -2.960648 H        1 UNL1     0.0234
     117 H         -3.182316   0.723881   -3.115108 H        1 UNL1     0.0234
     118 H         5.183014   3.928015   -2.851131 H        1 UNL1     0.0309
     119 H         3.584578   3.185259   -3.169527 H        1 UNL1     0.0309
     120 H         4.27838   4.372919   -4.251312 H        1 UNL1     0.0309
     121 H         -0.897817   2.828535   -1.307587 H        1 UNL1     0.0524
     122 H         -0.687658   4.374738   -2.139421 H        1 UNL1     0.0524
     123 H         -2.259818   3.540234   -2.214652 H        1 UNL1     0.0524
@<TRIPOS>BOND
     1     1     2    1
     2     1    42    1
     3     2     3    2
     4     3     4    1
     5     4     5    2
     6     5     7    1
     7     6    75    1
     8     6    76    1
     9     6    77    1
    10     7     9   am
    11     9    10    1
    12    10    11    2
    13    10    43    1
    14    11    14    1
    15    11    15    1
    16    12    13   ar
    17    12    27   ar
    18    12    43    1
    19    13    14    1
    20    13    30   ar
    21    14    17    2
    22    15    16    1
    23    16    17    1
    24    16    18    1
    25    16    22    1
    26    18    19    1
    27    19    20    1
    28    20    21    1
    29    21    22    1
    30    23    24    1
    31    23    88    1
    32    23    89    1
    33    24    25    1
    34    24    26    1
    35    24    90    1
    36    25    91    1
    37    25    92    1
    38    25    93    1
    39    26    94    1
    40    26    95    1
    41    26    96    1
    42    27    28   ar
    43    28    29   ar
    44    29    30   ar
    45    29    31    1
    46    30    33    1
    47    31    32    1
    48    32    33    1
    49    32    35    1
    50    34    97    1
    51    34    98    1
    52    34    99    1
    53    35    61    1
    54    36    37    1
    55    36    60    1
    56    37    38    1
    57    38    39    1
    58    39    40    1
    59    40    41    1
    60    41    42    1
    61    45   100    1
    62    47   101    1
    63    47   102    1
    64    47   103    1
    65    48   104    1
    66    49   105    1
    67    49   106    1
    68    49   107    1
    69    50   108    1
    70    51    59    1
    71    52   109    1
    72    52   110    1
    73    52   111    1
    74    53    54    1
    75    54    55    2
    76    54    56    1
    77    56   112    1
    78    56   113    1
    79    56   114    1
    80    57   115    1
    81    57   116    1
    82    57   117    1
    83    58   118    1
    84    58   119    1
    85    58   120    1
    86    59   121    1
    87    59   122    1
    88    59   123    1
    89    60    61    2
    90     1    47    1
    91     1    62    1
    92     2    63    1
    93     3    64    1
    94     4    65    1
    95     5     6    1
    96     7     8    2
    97     9    78    1
    98    15    79    1
    99    18    80    1
   100    18    81    1
   101    19    82    1
   102    19    83    1
   103    20    23    1
   104    21    84    1
   105    21    85    1
   106    22    86    1
   107    22    87    1
   108    27    45    1
   109    28    34    1
   110    32    58    1
   111    33    46    2
   112    36    51    1
   113    36    66    1
   114    37    52    1
   115    37    67    1
   116    38    53    1
   117    38    68    1
   118    42    48    1
   119    42    72    1
   120    43    44    2
   121    60    73    1
   122    61    74    1
   123    39    69    1
   124    39    57    1
   125    40    70    1
   126    40    50    1
   127    41    71    1
   128    41    49    1
