@<TRIPOS>MOLECULE
*****
 123 128 0 0 0
SMALL
GASTEIGER

@<TRIPOS>ATOM
     1 C         5.166629   1.750444   0.491081 C.3        1 UNL1     0.0009
     2 C         6.602904   2.557337   -0.359258 C.2        1 UNL1     -0.0787
     3 C         7.884715   2.459819   -1.025213 C.2        1 UNL1     -0.0649
     4 C         8.761614   3.695498   -1.780528 C.2        1 UNL1     -0.0542
     5 C         9.781394   3.98881   -2.719195 C.2        1 UNL1     0.0115
     6 C         10.90968   3.364046   -3.585199 C.3        1 UNL1     -0.0348
     7 C         9.87612   5.472298   -3.325229 C.2        1 UNL1     0.2441
     8 O         10.699773   6.294111   -2.947411 O.2        1 UNL1     -0.2702
     9 N         9.125647   5.679386   -4.495723 N.am        1 UNL1     -0.2772
     10 C         7.842844   6.065513   -4.181646 C.2        1 UNL1     0.1049
     11 C         6.997444   5.093708   -3.889901 C.2        1 UNL1     0.0801
     12 C         6.544104   7.671247   -2.770183 C.ar        1 UNL1     0.0753
     13 C         5.78551   6.542919   -2.322948 C.ar        1 UNL1     0.0305
     14 C         5.902801   5.23747   -2.968779 C.2        1 UNL1     0.0924
     15 N         7.120506   3.764825   -4.049444 N.pl3        1 UNL1     -0.3170
     16 C         5.850905   3.165107   -3.73527 C.3        1 UNL1     0.1275
     17 N         5.21432   4.119797   -2.754939 N.2        1 UNL1     -0.2557
     18 C         4.997843   3.224291   -4.998791 C.3        1 UNL1     0.0016
     19 C         5.752792   2.540834   -6.127741 C.3        1 UNL1     0.0026
     20 N         6.023476   1.162701   -5.742374 N.3        1 UNL1     -0.3018
     21 C         6.787079   1.002169   -4.503217 C.3        1 UNL1     0.0026
     22 C         6.008263   1.692049   -3.381876 C.3        1 UNL1     0.0016
     23 C         6.468101   0.343682   -6.852401 C.3        1 UNL1     0.0012
     24 C         5.312593   0.094122   -7.834378 C.3        1 UNL1     -0.0339
     25 C         5.347774   1.086665   -9.008122 C.3        1 UNL1     -0.0615
     26 C         5.342126   -1.345208   -8.31836 C.3        1 UNL1     -0.0615
     27 C         6.339082   8.938693   -2.230123 C.ar        1 UNL1     0.1347
     28 C         5.380076   9.207591   -1.269887 C.ar        1 UNL1     0.0342
     29 C         4.678983   8.072746   -0.809716 C.ar        1 UNL1     0.1435
     30 C         4.898798   6.79096   -1.315609 C.ar        1 UNL1     0.0774
     31 O         3.638084   8.18567   0.043972 O.3        1 UNL1     -0.4436
     32 C         2.916816   6.952643   -0.098476 C.3        1 UNL1     0.3143
     33 C         3.930379   5.960065   -0.631105 C.2        1 UNL1     0.2504
     34 C         4.932827   10.573396   -0.8287 C.3        1 UNL1     -0.0327
     35 O         2.55654   6.515392   1.217679 O.2        1 UNL1     -0.4528
     36 C         -0.685891   4.582196   0.820836 C.3        1 UNL1     0.0854
     37 C         -0.990898   3.321794   -0.076872 C.3        1 UNL1     0.0236
     38 C         -1.590886   2.060287   0.710757 C.3        1 UNL1     0.1131
     39 C         -0.864734   1.52919   2.011876 C.3        1 UNL1     0.0200
     40 C         0.796516   1.384214   2.052731 C.3        1 UNL1     0.0661
     41 C         1.755967   0.616093   0.88352 C.3        1 UNL1     0.0091
     42 C         3.463336   0.979428   0.319357 C.3        1 UNL1     0.0661
     43 C         7.494038   7.464234   -3.891357 C.2        1 UNL1     0.2131
     44 O         7.893491   8.36268   -4.609667 O.2        1 UNL1     -0.2851
     45 O         7.150912   9.97423   -2.688415 O.3        1 UNL1     -0.5056
     46 O         3.94681   4.756495   -0.500711 O.2        1 UNL1     -0.2836
     47 C         5.563375   1.320652   1.929084 C.3        1 UNL1     -0.0566
     48 O         3.912407   -0.431546   0.400625 O.3        1 UNL1     -0.3909
     49 C         0.92166   0.383602   -0.356388 C.3        1 UNL1     -0.0577
     50 O         1.396353   2.602163   2.445822 O.3        1 UNL1     -0.3910
     51 O         -0.809687   4.392042   2.212219 O.3        1 UNL1     -0.3753
     52 C         0.053425   3.162049   -1.229616 C.3        1 UNL1     -0.0564
     53 O         -2.193273   1.021375   -0.189308 O.3        1 UNL1     -0.4608
     54 C         -2.427172   -0.285565   0.15 C.2        1 UNL1     0.3042
     55 O         -1.856777   -1.284258   -0.287152 O.2        1 UNL1     -0.2512
     56 C         -3.46846   -0.452022   1.219918 C.3        1 UNL1     0.0332
     57 C         -1.585788   2.197539   3.273449 C.3        1 UNL1     -0.0567
     58 C         1.841358   7.197697   -1.182389 C.3        1 UNL1     0.0210
     59 C         -1.123172   5.570707   2.952718 C.3        1 UNL1     0.0372
     60 C         0.642847   5.211815   0.590196 C.2        1 UNL1     -0.0208
     61 C         1.555775   5.647095   1.459585 C.2        1 UNL1     0.0882
     62 H         4.690381   2.734424   0.578732 H        1 UNL1     0.0365
     63 H         6.336308   3.611011   -0.253583 H        1 UNL1     0.0576
     64 H         8.342669   1.493196   -1.246636 H        1 UNL1     0.0615
     65 H         8.274272   4.610618   -1.433346 H        1 UNL1     0.0622
     66 H         -1.430853   5.328562   0.510968 H        1 UNL1     0.0645
     67 H         -1.856656   3.631047   -0.687924 H        1 UNL1     0.0362
     68 H         -2.538048   2.496726   1.062788 H        1 UNL1     0.0741
     69 H         -1.195873   0.517917   2.207022 H        1 UNL1     0.0359
     70 H         0.908669   0.723652   2.933719 H        1 UNL1     0.0600
     71 H         1.799976   -0.405188   1.310141 H        1 UNL1     0.0348
     72 H         3.357451   1.467296   1.299198 H        1 UNL1     0.0602
     73 H         0.760499   5.409423   -0.446316 H        1 UNL1     0.0628
     74 H         1.538484   5.436098   2.52936 H        1 UNL1     0.1022
     75 H         10.935956   2.255345   -3.454333 H        1 UNL1     0.0279
     76 H         10.809266   3.470396   -4.66301 H        1 UNL1     0.0279
     77 H         11.915507   3.646802   -3.241599 H        1 UNL1     0.0279
     78 H         9.063858   4.809576   -5.020785 H        1 UNL1     0.1553
     79 H         7.785819   3.337253   -4.667079 H        1 UNL1     0.1484
     80 H         4.036765   2.732966   -4.804641 H        1 UNL1     0.0317
     81 H         4.77083   4.261049   -5.26944 H        1 UNL1     0.0317
     82 H         6.683229   3.072533   -6.375725 H        1 UNL1     0.0428
     83 H         5.127468   2.596031   -7.019353 H        1 UNL1     0.0428
     84 H         6.907813   -0.040835   -4.194385 H        1 UNL1     0.0428
     85 H         7.817026   1.37059   -4.6071 H        1 UNL1     0.0428
     86 H         6.524928   1.441589   -2.473959 H        1 UNL1     0.0317
     87 H         5.029004   1.214036   -3.256763 H        1 UNL1     0.0317
     88 H         7.263886   0.885913   -7.379663 H        1 UNL1     0.0429
     89 H         6.901084   -0.602047   -6.501835 H        1 UNL1     0.0429
     90 H         4.35961   0.212707   -7.305252 H        1 UNL1     0.0308
     91 H         6.300869   1.03638   -9.543083 H        1 UNL1     0.0233
     92 H         4.532832   0.88662   -9.707737 H        1 UNL1     0.0233
     93 H         5.22134   2.125632   -8.680407 H        1 UNL1     0.0233
     94 H         4.647539   -1.476663   -9.155083 H        1 UNL1     0.0233
     95 H         6.34566   -1.600656   -8.669966 H        1 UNL1     0.0233
     96 H         5.059572   -2.039767   -7.522295 H        1 UNL1     0.0233
     97 H         4.133338   10.523254   -0.095533 H        1 UNL1     0.0280
     98 H         5.743042   11.140094   -0.351561 H        1 UNL1     0.0280
     99 H         4.567611   11.141442   -1.699927 H        1 UNL1     0.0280
     100 H         6.683578   10.725299   -3.009534 H        1 UNL1     0.2922
     101 H         4.697653   0.897976   2.438522 H        1 UNL1     0.0236
     102 H         6.025071   2.122605   2.504141 H        1 UNL1     0.0236
     103 H         6.310728   0.509694   1.927589 H        1 UNL1     0.0236
     104 H         4.326756   -0.559227   1.276401 H        1 UNL1     0.2098
     105 H         0.708601   1.28253   -0.929403 H        1 UNL1     0.0234
     106 H         1.291209   -0.404096   -1.012812 H        1 UNL1     0.0234
     107 H         0.0   -0.0   0.0 H        1 UNL1     0.0234
     108 H         1.212479   3.255895   1.743973 H        1 UNL1     0.2098
     109 H         1.07981   3.061209   -0.850041 H        1 UNL1     0.0234
     110 H         -0.172178   2.327457   -1.902151 H        1 UNL1     0.0234
     111 H         0.065408   4.039833   -1.889387 H        1 UNL1     0.0234
     112 H         -3.591386   -1.512998   1.457749 H        1 UNL1     0.0342
     113 H         -3.233119   0.123994   2.113598 H        1 UNL1     0.0342
     114 H         -4.42564   -0.08171   0.827694 H        1 UNL1     0.0342
     115 H         -2.655318   1.948878   3.311665 H        1 UNL1     0.0234
     116 H         -1.149065   1.917647   4.234169 H        1 UNL1     0.0234
     117 H         -1.624779   3.299396   3.225153 H        1 UNL1     0.0234
     118 H         0.939563   7.682756   -0.769484 H        1 UNL1     0.0309
     119 H         2.209946   7.787358   -2.027755 H        1 UNL1     0.0309
     120 H         1.454144   6.265765   -1.608621 H        1 UNL1     0.0309
     121 H         -0.290925   6.264356   2.836221 H        1 UNL1     0.0524
     122 H         -2.029401   6.073157   2.575449 H        1 UNL1     0.0524
     123 H         -1.265252   5.3286   4.002143 H        1 UNL1     0.0524
@<TRIPOS>BOND
     1     1     2    1
     2     1    42    1
     3     2     3    2
     4     3     4    1
     5     4     5    2
     6     5     7    1
     7     6    75    1
     8     6    76    1
     9     6    77    1
    10     7     9   am
    11     9    10    1
    12    10    11    2
    13    10    43    1
    14    11    14    1
    15    11    15    1
    16    12    13   ar
    17    12    27   ar
    18    12    43    1
    19    13    14    1
    20    13    30   ar
    21    14    17    2
    22    15    16    1
    23    16    17    1
    24    16    18    1
    25    16    22    1
    26    18    19    1
    27    19    20    1
    28    20    21    1
    29    21    22    1
    30    23    24    1
    31    23    88    1
    32    23    89    1
    33    24    25    1
    34    24    26    1
    35    24    90    1
    36    25    91    1
    37    25    92    1
    38    25    93    1
    39    26    94    1
    40    26    95    1
    41    26    96    1
    42    27    28   ar
    43    28    29   ar
    44    29    30   ar
    45    29    31    1
    46    30    33    1
    47    31    32    1
    48    32    33    1
    49    32    35    1
    50    34    97    1
    51    34    98    1
    52    34    99    1
    53    35    61    1
    54    36    37    1
    55    36    60    1
    56    37    38    1
    57    38    39    1
    58    39    40    1
    59    40    41    1
    60    41    42    1
    61    45   100    1
    62    47   101    1
    63    47   102    1
    64    47   103    1
    65    48   104    1
    66    49   105    1
    67    49   106    1
    68    49   107    1
    69    50   108    1
    70    51    59    1
    71    52   109    1
    72    52   110    1
    73    52   111    1
    74    53    54    1
    75    54    55    2
    76    54    56    1
    77    56   112    1
    78    56   113    1
    79    56   114    1
    80    57   115    1
    81    57   116    1
    82    57   117    1
    83    58   118    1
    84    58   119    1
    85    58   120    1
    86    59   121    1
    87    59   122    1
    88    59   123    1
    89    60    61    2
    90     1    47    1
    91     1    62    1
    92     2    63    1
    93     3    64    1
    94     4    65    1
    95     5     6    1
    96     7     8    2
    97     9    78    1
    98    15    79    1
    99    18    80    1
   100    18    81    1
   101    19    82    1
   102    19    83    1
   103    20    23    1
   104    21    84    1
   105    21    85    1
   106    22    86    1
   107    22    87    1
   108    27    45    1
   109    28    34    1
   110    32    58    1
   111    33    46    2
   112    36    51    1
   113    36    66    1
   114    37    52    1
   115    37    67    1
   116    38    53    1
   117    38    68    1
   118    42    48    1
   119    42    72    1
   120    43    44    2
   121    60    73    1
   122    61    74    1
   123    39    69    1
   124    39    57    1
   125    40    70    1
   126    40    50    1
   127    41    71    1
   128    41    49    1
