@<TRIPOS>MOLECULE
*****
 123 128 0 0 0
SMALL
GASTEIGER

@<TRIPOS>ATOM
     1 C         4.960241   2.322764   -0.007021 C.3        1 UNL1     0.0009
     2 C         6.410669   2.845346   -1.036683 C.2        1 UNL1     -0.0787
     3 C         7.753792   2.612549   -1.524403 C.2        1 UNL1     -0.0649
     4 C         8.609551   3.503635   -2.681987 C.2        1 UNL1     -0.0542
     5 C         9.690979   3.482419   -3.596941 C.2        1 UNL1     0.0115
     6 C         10.937831   2.674188   -4.050203 C.3        1 UNL1     -0.0348
     7 C         9.738406   4.578134   -4.769181 C.2        1 UNL1     0.2441
     8 O         10.462409   5.563437   -4.730155 O.2        1 UNL1     -0.2702
     9 N         9.090216   4.19803   -5.957256 N.am        1 UNL1     -0.2772
     10 C         7.759338   4.544243   -5.910105 C.2        1 UNL1     0.1049
     11 C         6.960474   3.700973   -5.281668 C.2        1 UNL1     0.0801
     12 C         6.222205   6.448001   -5.39024 C.ar        1 UNL1     0.0753
     13 C         5.505729   5.537436   -4.549917 C.ar        1 UNL1     0.0305
     14 C         5.775624   4.101573   -4.572425 C.2        1 UNL1     0.0924
     15 N         7.191395   2.447684   -4.854502 N.pl3        1 UNL1     -0.3170
     16 C         5.942995   1.905484   -4.387845 C.3        1 UNL1     0.1275
     17 N         5.150264   3.110432   -3.943545 N.2        1 UNL1     -0.2557
     18 C         5.212215   1.342348   -5.602975 C.3        1 UNL1     0.0016
     19 C         6.117553   0.332455   -6.290045 C.3        1 UNL1     0.0026
     20 N         6.446583   -0.722313   -5.341239 N.3        1 UNL1     -0.3018
     21 C         7.097988   -0.27014   -4.11015 C.3        1 UNL1     0.0026
     22 C         6.169223   0.739888   -3.434034 C.3        1 UNL1     0.0016
     23 C         7.05152   -1.878955   -5.971218 C.3        1 UNL1     0.0012
     24 C         6.015315   -2.634637   -6.817966 C.3        1 UNL1     -0.0339
     25 C         6.080547   -2.212667   -8.295038 C.3        1 UNL1     -0.0615
     26 C         6.203213   -4.133033   -6.655843 C.3        1 UNL1     -0.0615
     27 C         5.877954   7.796251   -5.452133 C.ar        1 UNL1     0.1347
     28 C         4.815251   8.340254   -4.753009 C.ar        1 UNL1     0.0342
     29 C         4.155097   7.435193   -3.894973 C.ar        1 UNL1     0.1435
     30 C         4.511789   6.089811   -3.795279 C.ar        1 UNL1     0.0774
     31 O         3.03221   7.785385   -3.230521 O.3        1 UNL1     -0.4436
     32 C         2.416374   6.537889   -2.87644 C.3        1 UNL1     0.3143
     33 C         3.543418   5.524983   -2.878768 C.2        1 UNL1     0.2504
     34 C         4.232982   9.710775   -4.959732 C.3        1 UNL1     -0.0327
     35 O         1.963951   6.655497   -1.521916 O.2        1 UNL1     -0.4528
     36 C         -1.081768   4.407392   -1.243147 C.3        1 UNL1     0.0854
     37 C         -1.210358   2.86303   -1.536292 C.3        1 UNL1     0.0236
     38 C         -1.792418   1.990947   -0.322858 C.3        1 UNL1     0.1131
     39 C         -1.158028   2.130632   1.119469 C.3        1 UNL1     0.0200
     40 C         0.497828   2.189725   1.312046 C.3        1 UNL1     0.0661
     41 C         1.616025   1.107879   0.636135 C.3        1 UNL1     0.0091
     42 C         3.339574   1.377854   0.068778 C.3        1 UNL1     0.0661
     43 C         7.286886   5.891688   -6.261578 C.2        1 UNL1     0.2131
     44 O         7.688767   6.444157   -7.26955 O.2        1 UNL1     -0.2851
     45 O         6.654875   8.623985   -6.260025 O.3        1 UNL1     -0.5056
     46 O         3.632004   4.494813   -2.248882 O.2        1 UNL1     -0.2836
     47 C         5.247369   2.576782   1.497311 C.3        1 UNL1     -0.0566
     48 O         3.87703   0.184985   0.766861 O.3        1 UNL1     -0.3909
     49 C         0.922143   0.29329   -0.432728 C.3        1 UNL1     -0.0577
     50 O         0.970259   3.515668   1.183964 O.3        1 UNL1     -0.3910
     51 O         -1.323935   4.804063   0.087807 O.3        1 UNL1     -0.3753
     52 C         -0.05227   2.346017   -2.450885 C.3        1 UNL1     -0.0564
     53 O         -2.231657   0.614571   -0.72904 O.3        1 UNL1     -0.4608
     54 C         -2.391614   -0.451171   0.117446 C.2        1 UNL1     0.3042
     55 O         -1.710634   -1.47474   0.166536 O.2        1 UNL1     -0.2512
     56 C         -3.503829   -0.26869   1.110618 C.3        1 UNL1     0.0332
     57 C         -2.041289   3.185812   1.93471 C.3        1 UNL1     -0.0567
     58 C         1.434563   6.194399   -4.020813 C.3        1 UNL1     0.0210
     59 C         -1.818652   6.134131   0.236267 C.3        1 UNL1     0.0372
     60 C         0.215287   5.017627   -1.643675 C.2        1 UNL1     -0.0208
     61 C         1.008283   5.868668   -0.99127 C.2        1 UNL1     0.0882
     62 H         4.409746   3.197958   -0.372676 H        1 UNL1     0.0365
     63 H         6.061726   3.812793   -1.403776 H        1 UNL1     0.0576
     64 H         8.29765   1.695241   -1.288028 H        1 UNL1     0.0615
     65 H         8.028147   4.423928   -2.784522 H        1 UNL1     0.0622
     66 H         -1.84447   4.874103   -1.882297 H        1 UNL1     0.0645
     67 H         -2.033535   2.796825   -2.268791 H        1 UNL1     0.0362
     68 H         -2.797179   2.433355   -0.243769 H        1 UNL1     0.0741
     69 H         -1.434268   1.264907   1.706511 H        1 UNL1     0.0359
     70 H         0.571703   1.973164   2.394961 H        1 UNL1     0.0600
     71 H         1.69093   0.368849   1.457829 H        1 UNL1     0.0348
     72 H         3.106704   2.216471   0.740945 H        1 UNL1     0.0602
     73 H         0.417003   4.775275   -2.657492 H        1 UNL1     0.0628
     74 H         0.903992   6.123272   0.063973 H        1 UNL1     0.1022
     75 H         11.045637   1.744976   -3.440305 H        1 UNL1     0.0279
     76 H         10.921746   2.286825   -5.066451 H        1 UNL1     0.0279
     77 H         11.88319   3.190429   -3.827733 H        1 UNL1     0.0279
     78 H         9.140123   3.187185   -6.065792 H        1 UNL1     0.1553
     79 H         7.940984   1.873004   -5.193313 H        1 UNL1     0.1484
     80 H         4.273976   0.879956   -5.273325 H        1 UNL1     0.0317
     81 H         4.939638   2.141452   -6.300676 H        1 UNL1     0.0317
     82 H         7.027656   0.805613   -6.687219 H        1 UNL1     0.0428
     83 H         5.577737   -0.055231   -7.154539 H        1 UNL1     0.0428
     84 H         7.261834   -1.069993   -3.381315 H        1 UNL1     0.0428
     85 H         8.104656   0.12619   -4.302141 H        1 UNL1     0.0428
     86 H         6.613333   0.946833   -2.478038 H        1 UNL1     0.0317
     87 H         5.218577   0.258783   -3.173447 H        1 UNL1     0.0317
     88 H         7.853799   -1.526959   -6.632839 H        1 UNL1     0.0429
     89 H         7.514591   -2.54108   -5.228299 H        1 UNL1     0.0429
     90 H         5.011029   -2.415676   -6.436287 H        1 UNL1     0.0308
     91 H         7.077587   -2.380819   -8.713056 H        1 UNL1     0.0233
     92 H         5.345902   -2.763587   -8.886978 H        1 UNL1     0.0233
     93 H         5.85162   -1.149406   -8.43612 H        1 UNL1     0.0233
     94 H         5.6005   -4.671456   -7.395217 H        1 UNL1     0.0233
     95 H         7.251755   -4.39785   -6.818306 H        1 UNL1     0.0233
     96 H         5.905348   -4.466898   -5.657956 H        1 UNL1     0.0233
     97 H         3.37838   9.891936   -4.314699 H        1 UNL1     0.0280
     98 H         4.955081   10.505814   -4.732261 H        1 UNL1     0.0280
     99 H         3.904753   9.818246   -6.006542 H        1 UNL1     0.0280
     100 H         6.168796   9.117669   -6.896912 H        1 UNL1     0.2922
     101 H         4.373266   2.306212   2.089251 H        1 UNL1     0.0236
     102 H         5.582919   3.592472   1.704104 H        1 UNL1     0.0236
     103 H         6.055176   1.930644   1.8796 H        1 UNL1     0.0236
     104 H         4.219421   0.479685   1.633401 H        1 UNL1     0.2098
     105 H         0.701943   0.843141   -1.344313 H        1 UNL1     0.0234
     106 H         1.407092   -0.653422   -0.670399 H        1 UNL1     0.0234
     107 H         0.0   -0.0   0.0 H        1 UNL1     0.0234
     108 H         0.789958   3.800607   0.267411 H        1 UNL1     0.2098
     109 H         0.937199   2.509199   -2.001403 H        1 UNL1     0.0234
     110 H         -0.159926   1.291525   -2.72693 H        1 UNL1     0.0234
     111 H         -0.031588   2.872623   -3.414319 H        1 UNL1     0.0234
     112 H         -3.574217   -1.149175   1.75648 H        1 UNL1     0.0342
     113 H         -3.382122   0.639148   1.699568 H        1 UNL1     0.0342
     114 H         -4.448239   -0.181525   0.55595 H        1 UNL1     0.0342
     115 H         -3.083894   2.854175   2.035607 H        1 UNL1     0.0234
     116 H         -1.665753   3.398193   2.937664 H        1 UNL1     0.0234
     117 H         -2.173439   4.147556   1.409803 H        1 UNL1     0.0234
     118 H         0.466174   6.712051   -3.905633 H        1 UNL1     0.0309
     119 H         1.840222   6.410445   -5.014275 H        1 UNL1     0.0309
     120 H         1.15509   5.135204   -4.031163 H        1 UNL1     0.0309
     121 H         -1.05828   6.813515   -0.147958 H        1 UNL1     0.0524
     122 H         -2.740412   6.304908   -0.344448 H        1 UNL1     0.0524
     123 H         -2.016879   6.346761   1.282971 H        1 UNL1     0.0524
@<TRIPOS>BOND
     1     1     2    1
     2     1    42    1
     3     2     3    2
     4     3     4    1
     5     4     5    2
     6     5     7    1
     7     6    75    1
     8     6    76    1
     9     6    77    1
    10     7     9   am
    11     9    10    1
    12    10    11    2
    13    10    43    1
    14    11    14    1
    15    11    15    1
    16    12    13   ar
    17    12    27   ar
    18    12    43    1
    19    13    14    1
    20    13    30   ar
    21    14    17    2
    22    15    16    1
    23    16    17    1
    24    16    18    1
    25    16    22    1
    26    18    19    1
    27    19    20    1
    28    20    21    1
    29    21    22    1
    30    23    24    1
    31    23    88    1
    32    23    89    1
    33    24    25    1
    34    24    26    1
    35    24    90    1
    36    25    91    1
    37    25    92    1
    38    25    93    1
    39    26    94    1
    40    26    95    1
    41    26    96    1
    42    27    28   ar
    43    28    29   ar
    44    29    30   ar
    45    29    31    1
    46    30    33    1
    47    31    32    1
    48    32    33    1
    49    32    35    1
    50    34    97    1
    51    34    98    1
    52    34    99    1
    53    35    61    1
    54    36    37    1
    55    36    60    1
    56    37    38    1
    57    38    39    1
    58    39    40    1
    59    40    41    1
    60    41    42    1
    61    45   100    1
    62    47   101    1
    63    47   102    1
    64    47   103    1
    65    48   104    1
    66    49   105    1
    67    49   106    1
    68    49   107    1
    69    50   108    1
    70    51    59    1
    71    52   109    1
    72    52   110    1
    73    52   111    1
    74    53    54    1
    75    54    55    2
    76    54    56    1
    77    56   112    1
    78    56   113    1
    79    56   114    1
    80    57   115    1
    81    57   116    1
    82    57   117    1
    83    58   118    1
    84    58   119    1
    85    58   120    1
    86    59   121    1
    87    59   122    1
    88    59   123    1
    89    60    61    2
    90     1    47    1
    91     1    62    1
    92     2    63    1
    93     3    64    1
    94     4    65    1
    95     5     6    1
    96     7     8    2
    97     9    78    1
    98    15    79    1
    99    18    80    1
   100    18    81    1
   101    19    82    1
   102    19    83    1
   103    20    23    1
   104    21    84    1
   105    21    85    1
   106    22    86    1
   107    22    87    1
   108    27    45    1
   109    28    34    1
   110    32    58    1
   111    33    46    2
   112    36    51    1
   113    36    66    1
   114    37    52    1
   115    37    67    1
   116    38    53    1
   117    38    68    1
   118    42    48    1
   119    42    72    1
   120    43    44    2
   121    60    73    1
   122    61    74    1
   123    39    69    1
   124    39    57    1
   125    40    70    1
   126    40    50    1
   127    41    71    1
   128    41    49    1
