@<TRIPOS>MOLECULE
*****
 123 128 0 0 0
SMALL
GASTEIGER

@<TRIPOS>ATOM
     1 C         3.651749   0.223585   -2.586789 C.3        1 UNL1     0.0009
     2 C         5.420103   -0.14781   -2.172028 C.2        1 UNL1     -0.0787
     3 C         6.779697   0.299371   -1.953899 C.2        1 UNL1     -0.0649
     4 C         8.101952   -0.612731   -1.419045 C.2        1 UNL1     -0.0542
     5 C         9.38905   -0.556385   -0.829739 C.2        1 UNL1     0.0115
     6 C         10.540584   0.40048   -0.415369 C.3        1 UNL1     -0.0348
     7 C         10.000321   -1.886112   -0.170071 C.2        1 UNL1     0.2441
     8 O         10.847731   -2.573978   -0.722577 O.2        1 UNL1     -0.2702
     9 N         9.691733   -2.064401   1.189759 N.am        1 UNL1     -0.2772
     10 C         8.500856   -2.739824   1.327375 C.2        1 UNL1     0.1049
     11 C         7.404042   -2.009151   1.24172 C.2        1 UNL1     0.0801
     12 C         7.262988   -4.761136   0.527804 C.ar        1 UNL1     0.0753
     13 C         6.164968   -3.884332   0.25545 C.ar        1 UNL1     0.0305
     14 C         6.155008   -2.50133   0.726889 C.2        1 UNL1     0.0924
     15 N         7.252997   -0.673617   1.249585 N.pl3        1 UNL1     -0.3170
     16 C         5.843268   -0.391169   1.305623 C.3        1 UNL1     0.1275
     17 N         5.192193   -1.58667   0.654008 N.2        1 UNL1     -0.2557
     18 C         5.431781   -0.43291   2.774172 C.3        1 UNL1     0.0016
     19 C         6.299339   0.54512   3.55031 C.3        1 UNL1     0.0026
     20 N         6.115796   1.877823   2.992418 N.3        1 UNL1     -0.3018
     21 C         6.427577   2.003542   1.567162 C.3        1 UNL1     0.0026
     22 C         5.541582   1.015657   0.806248 C.3        1 UNL1     0.0016
     23 C         6.658136   2.922695   3.837849 C.3        1 UNL1     0.0012
     24 C         7.583955   3.84427   3.028334 C.3        1 UNL1     -0.0339
     25 C         9.064691   3.514499   3.278787 C.3        1 UNL1     -0.0615
     26 C         7.235726   3.765787   1.552069 C.3        1 UNL1     -0.0615
     27 C         7.213289   -6.109255   0.181074 C.ar        1 UNL1     0.1347
     28 C         6.108111   -6.70144   -0.403691 C.ar        1 UNL1     0.0342
     29 C         5.058171   -5.808779   -0.706916 C.ar        1 UNL1     0.1435
     30 C         5.108332   -4.448833   -0.398289 C.ar        1 UNL1     0.0774
     31 O         3.871325   -6.250494   -1.177331 O.3        1 UNL1     -0.4436
     32 C         2.954315   -5.178326   -0.911959 C.3        1 UNL1     0.3143
     33 C         3.816555   -3.936779   -0.805572 C.2        1 UNL1     0.2504
     34 C         5.885356   -8.178555   -0.572838 C.3        1 UNL1     -0.0327
     35 O         2.136039   -5.019358   -2.077466 O.2        1 UNL1     -0.4528
     36 C         -1.21081   -3.73301   -0.831674 C.3        1 UNL1     0.0854
     37 C         -1.52907   -2.440727   0.014634 C.3        1 UNL1     0.0236
     38 C         -2.609791   -1.453249   -0.640096 C.3        1 UNL1     0.1131
     39 C         -2.437577   -0.985001   -2.141215 C.3        1 UNL1     0.0200
     40 C         -0.941879   -0.520015   -2.714897 C.3        1 UNL1     0.0661
     41 C         0.107268   0.586641   -1.971787 C.3        1 UNL1     0.0091
     42 C         1.940267   0.657001   -1.94793 C.3        1 UNL1     0.0661
     43 C         8.4209   -4.207117   1.272493 C.2        1 UNL1     0.2131
     44 O         9.210349   -4.892862   1.896401 O.2        1 UNL1     -0.2851
     45 O         8.342164   -6.883934   0.439826 O.3        1 UNL1     -0.5056
     46 O         3.511901   -2.786408   -1.028478 O.2        1 UNL1     -0.2836
     47 C         3.502367   0.508061   -4.105585 C.3        1 UNL1     -0.0566
     48 O         2.002696   2.101618   -2.277022 O.3        1 UNL1     -0.3909
     49 C         -0.362026   0.827794   -0.554359 C.3        1 UNL1     -0.0577
     50 O         -0.213729   -1.638493   -3.180224 O.3        1 UNL1     -0.3910
     51 O         -1.773535   -3.777459   -2.123493 O.3        1 UNL1     -0.3753
     52 C         -0.263342   -1.909101   0.763136 C.3        1 UNL1     -0.0564
     53 O         -3.1514   -0.434402   0.319558 O.3        1 UNL1     -0.4608
     54 C         -3.742734   0.751456   -0.02972 C.2        1 UNL1     0.3042
     55 O         -3.24329   1.875215   0.009768 O.2        1 UNL1     -0.2512
     56 C         -5.137251   0.593251   -0.565451 C.3        1 UNL1     0.0332
     57 C         -3.315665   -1.961099   -3.054653 C.3        1 UNL1     -0.0567
     58 C         2.327968   -5.470757   0.471407 C.3        1 UNL1     0.0210
     59 C         -1.876862   -5.083951   -2.687645 C.3        1 UNL1     0.0372
     60 C         0.236591   -4.044917   -0.983012 C.2        1 UNL1     -0.0208
     61 C         0.933764   -4.412582   -2.058892 C.2        1 UNL1     0.0882
     62 H         3.415057   -0.837468   -2.442381 H        1 UNL1     0.0365
     63 H         5.389064   -1.237329   -2.105287 H        1 UNL1     0.0576
     64 H         7.042254   1.359586   -1.964662 H        1 UNL1     0.0615
     65 H         7.763602   -1.647334   -1.521997 H        1 UNL1     0.0622
     66 H         -1.637327   -4.558977   -0.245236 H        1 UNL1     0.0645
     67 H         -2.082836   -2.823002   0.889716 H        1 UNL1     0.0362
     68 H         -3.488426   -2.116214   -0.640232 H        1 UNL1     0.0741
     69 H         -3.038447   -0.099606   -2.300715 H        1 UNL1     0.0359
     70 H         -1.247986   0.013149   -3.635274 H        1 UNL1     0.0600
     71 H         -0.214927   1.522417   -2.46925 H        1 UNL1     0.0348
     72 H         1.672366   0.019491   -2.802989 H        1 UNL1     0.0602
     73 H         0.692506   -4.060961   -0.024298 H        1 UNL1     0.0628
     74 H         0.558197   -4.368475   -3.081751 H        1 UNL1     0.1022
     75 H         10.849382   0.2081   0.640409 H        1 UNL1     0.0279
     76 H         11.478026   0.294355   -0.956672 H        1 UNL1     0.0279
     77 H         10.220989   1.451414   -0.359704 H        1 UNL1     0.0279
     78 H         9.582706   -1.156861   1.637599 H        1 UNL1     0.1553
     79 H         7.949157   -0.03636   1.590464 H        1 UNL1     0.1484
     80 H         4.368533   -0.176509   2.854972 H        1 UNL1     0.0317
     81 H         5.542581   -1.442967   3.183024 H        1 UNL1     0.0317
     82 H         7.35922   0.251397   3.533251 H        1 UNL1     0.0428
     83 H         5.990447   0.498002   4.595018 H        1 UNL1     0.0428
     84 H         6.205625   2.992908   1.15521 H        1 UNL1     0.0428
     85 H         7.49976   1.866694   1.369641 H        1 UNL1     0.0428
     86 H         5.699153   1.22797   -0.234945 H        1 UNL1     0.0317
     87 H         4.484595   1.265668   0.959116 H        1 UNL1     0.0317
     88 H         5.820912   3.519329   4.223046 H        1 UNL1     0.0429
     89 H         7.179805   2.501779   4.707025 H        1 UNL1     0.0429
     90 H         7.403069   4.884541   3.32385 H        1 UNL1     0.0308
     91 H         9.667978   4.424351   3.351698 H        1 UNL1     0.0233
     92 H         9.181054   2.932566   4.196078 H        1 UNL1     0.0233
     93 H         9.499297   2.908207   2.474819 H        1 UNL1     0.0233
     94 H         8.017898   4.245118   0.9535 H        1 UNL1     0.0233
     95 H         7.165512   2.720065   1.239823 H        1 UNL1     0.0233
     96 H         6.284805   4.262278   1.339437 H        1 UNL1     0.0233
     97 H         4.829586   -8.432148   -0.589309 H        1 UNL1     0.0280
     98 H         6.299382   -8.553971   -1.517773 H        1 UNL1     0.0280
     99 H         6.358067   -8.721069   0.262217 H        1 UNL1     0.0280
     100 H         8.492342   -7.064938   1.351037 H        1 UNL1     0.2922
     101 H         2.466205   0.75798   -4.332663 H        1 UNL1     0.0236
     102 H         3.87444   -0.301945   -4.732031 H        1 UNL1     0.0236
     103 H         4.079219   1.393934   -4.419692 H        1 UNL1     0.0236
     104 H         2.020739   2.181787   -3.250786 H        1 UNL1     0.2098
     105 H         0.032981   1.732067   -0.098211 H        1 UNL1     0.0234
     106 H         -1.442066   0.776284   -0.41729 H        1 UNL1     0.0234
     107 H         0.0   0.0   0.0 H        1 UNL1     0.0234
     108 H         0.726275   -1.37661   -3.219926 H        1 UNL1     0.2098
     109 H         0.551295   -1.651844   0.071834 H        1 UNL1     0.0234
     110 H         -0.475599   -1.053886   1.41375 H        1 UNL1     0.0234
     111 H         0.151637   -2.664642   1.443501 H        1 UNL1     0.0234
     112 H         -5.542172   1.570977   -0.843725 H        1 UNL1     0.0342
     113 H         -5.177426   -0.099508   -1.404685 H        1 UNL1     0.0342
     114 H         -5.767925   0.183049   0.235267 H        1 UNL1     0.0342
     115 H         -4.353306   -2.028891   -2.699838 H        1 UNL1     0.0234
     116 H         -3.346803   -1.674952   -4.107838 H        1 UNL1     0.0234
     117 H         -3.001607   -3.017551   -2.997922 H        1 UNL1     0.0234
     118 H         2.920938   -5.0363   1.295203 H        1 UNL1     0.0309
     119 H         1.292232   -5.126683   0.555468 H        1 UNL1     0.0309
     120 H         2.31237   -6.540245   0.708173 H        1 UNL1     0.0309
     121 H         -1.869452   -4.976385   -3.771956 H        1 UNL1     0.0524
     122 H         -1.024672   -5.727263   -2.412035 H        1 UNL1     0.0524
     123 H         -2.79777   -5.561085   -2.36459 H        1 UNL1     0.0524
@<TRIPOS>BOND
     1     1     2    1
     2     1    42    1
     3     2     3    2
     4     3     4    1
     5     4     5    2
     6     5     7    1
     7     6    75    1
     8     6    76    1
     9     6    77    1
    10     7     9   am
    11     9    10    1
    12    10    11    2
    13    10    43    1
    14    11    14    1
    15    11    15    1
    16    12    13   ar
    17    12    27   ar
    18    12    43    1
    19    13    14    1
    20    13    30   ar
    21    14    17    2
    22    15    16    1
    23    16    17    1
    24    16    18    1
    25    16    22    1
    26    18    19    1
    27    19    20    1
    28    20    21    1
    29    21    22    1
    30    23    24    1
    31    23    88    1
    32    23    89    1
    33    24    25    1
    34    24    26    1
    35    24    90    1
    36    25    91    1
    37    25    92    1
    38    25    93    1
    39    26    94    1
    40    26    95    1
    41    26    96    1
    42    27    28   ar
    43    28    29   ar
    44    29    30   ar
    45    29    31    1
    46    30    33    1
    47    31    32    1
    48    32    33    1
    49    32    35    1
    50    34    97    1
    51    34    98    1
    52    34    99    1
    53    35    61    1
    54    36    37    1
    55    36    60    1
    56    37    38    1
    57    38    39    1
    58    39    40    1
    59    40    41    1
    60    41    42    1
    61    45   100    1
    62    47   101    1
    63    47   102    1
    64    47   103    1
    65    48   104    1
    66    49   105    1
    67    49   106    1
    68    49   107    1
    69    50   108    1
    70    51    59    1
    71    52   109    1
    72    52   110    1
    73    52   111    1
    74    53    54    1
    75    54    55    2
    76    54    56    1
    77    56   112    1
    78    56   113    1
    79    56   114    1
    80    57   115    1
    81    57   116    1
    82    57   117    1
    83    58   118    1
    84    58   119    1
    85    58   120    1
    86    59   121    1
    87    59   122    1
    88    59   123    1
    89    60    61    2
    90     1    47    1
    91     1    62    1
    92     2    63    1
    93     3    64    1
    94     4    65    1
    95     5     6    1
    96     7     8    2
    97     9    78    1
    98    15    79    1
    99    18    80    1
   100    18    81    1
   101    19    82    1
   102    19    83    1
   103    20    23    1
   104    21    84    1
   105    21    85    1
   106    22    86    1
   107    22    87    1
   108    27    45    1
   109    28    34    1
   110    32    58    1
   111    33    46    2
   112    36    51    1
   113    36    66    1
   114    37    52    1
   115    37    67    1
   116    38    53    1
   117    38    68    1
   118    42    48    1
   119    42    72    1
   120    43    44    2
   121    60    73    1
   122    61    74    1
   123    39    69    1
   124    39    57    1
   125    40    70    1
   126    40    50    1
   127    41    71    1
   128    41    49    1
