@<TRIPOS>MOLECULE
*****
 123 128 0 0 0
SMALL
GASTEIGER

@<TRIPOS>ATOM
     1 C         5.165693   1.762661   0.455971 C.3        1 UNL1     0.0009
     2 C         6.595178   2.570418   -0.404924 C.2        1 UNL1     -0.0787
     3 C         7.873227   2.473914   -1.078217 C.2        1 UNL1     -0.0649
     4 C         8.742993   3.709512   -1.841867 C.2        1 UNL1     -0.0542
     5 C         9.756565   4.00258   -2.787309 C.2        1 UNL1     0.0115
     6 C         10.881034   3.377995   -3.658392 C.3        1 UNL1     -0.0348
     7 C         9.844527   5.484708   -3.397676 C.2        1 UNL1     0.2441
     8 O         10.668644   6.309234   -3.026847 O.2        1 UNL1     -0.2702
     9 N         9.086692   5.687201   -4.564225 N.am        1 UNL1     -0.2772
     10 C         7.80495   6.071409   -4.243533 C.2        1 UNL1     0.1049
     11 C         6.963373   5.098562   -3.944303 C.2        1 UNL1     0.0801
     12 C         6.511164   7.677995   -2.828495 C.ar        1 UNL1     0.0753
     13 C         5.757647   6.549209   -2.373893 C.ar        1 UNL1     0.0305
     14 C         5.8739   5.242361   -3.017077 C.2        1 UNL1     0.0924
     15 N         7.088328   3.769539   -4.101182 N.pl3        1 UNL1     -0.3170
     16 C         5.821896   3.167934   -3.777958 C.3        1 UNL1     0.1275
     17 N         5.189089   4.123781   -2.796308 N.2        1 UNL1     -0.2557
     18 C         4.961239   3.222069   -5.036545 C.3        1 UNL1     0.0016
     19 C         5.710946   2.537323   -6.168204 C.3        1 UNL1     0.0026
     20 N         5.986855   1.16076   -5.780935 N.3        1 UNL1     -0.3018
     21 C         6.758126   1.005027   -4.545922 C.3        1 UNL1     0.0026
     22 C         5.984492   1.696125   -3.421746 C.3        1 UNL1     0.0016
     23 C         6.426646   0.339844   -6.891486 C.3        1 UNL1     0.0012
     24 C         5.265877   0.085315   -7.865954 C.3        1 UNL1     -0.0339
     25 C         5.351253   1.005402   -9.09486 C.3        1 UNL1     -0.0615
     26 C         5.233136   -1.379599   -8.265624 C.3        1 UNL1     -0.0615
     27 C         6.306635   8.946383   -2.290463 C.ar        1 UNL1     0.1347
     28 C         5.352762   9.215706   -1.325248 C.ar        1 UNL1     0.0342
     29 C         4.656835   8.080557   -0.858035 C.ar        1 UNL1     0.1435
     30 C         4.876389   6.797949   -1.36195 C.ar        1 UNL1     0.0774
     31 O         3.620772   8.19346   0.00152 O.3        1 UNL1     -0.4436
     32 C         2.901311   6.958544   -0.133503 C.3        1 UNL1     0.3143
     33 C         3.91382   5.966758   -0.669599 C.2        1 UNL1     0.2504
     34 C         4.905215   10.581684   -0.884901 C.3        1 UNL1     -0.0327
     35 O         2.549773   6.523904   1.185876 O.2        1 UNL1     -0.4528
     36 C         -0.690812   4.582819   0.813197 C.3        1 UNL1     0.0854
     37 C         -0.998435   3.319475   -0.079468 C.3        1 UNL1     0.0236
     38 C         -1.591048   2.05872   0.71492 C.3        1 UNL1     0.1131
     39 C         -0.856068   1.532504   2.01306 C.3        1 UNL1     0.0200
     40 C         0.805701   1.391159   2.044435 C.3        1 UNL1     0.0661
     41 C         1.759849   0.622082   0.871519 C.3        1 UNL1     0.0091
     42 C         3.463066   0.987593   0.296317 C.3        1 UNL1     0.0661
     43 C         7.45488   7.470126   -3.95475 C.2        1 UNL1     0.2131
     44 O         7.848149   8.367573   -4.677705 O.2        1 UNL1     -0.2851
     45 O         7.113521   9.982463   -2.756201 O.3        1 UNL1     -0.5056
     46 O         3.933597   4.763563   -0.536236 O.2        1 UNL1     -0.2836
     47 C         5.571868   1.337399   1.892688 C.3        1 UNL1     -0.0566
     48 O         3.915625   -0.422211   0.37852 O.3        1 UNL1     -0.3909
     49 C         0.91871   0.384643   -0.362824 C.3        1 UNL1     -0.0577
     50 O         1.405251   2.611382   2.430854 O.3        1 UNL1     -0.3910
     51 O         -0.805956   4.39597   2.20577 O.3        1 UNL1     -0.3753
     52 C         0.03938   3.158992   -1.237973 C.3        1 UNL1     -0.0564
     53 O         -2.196535   1.016228   -0.178905 O.3        1 UNL1     -0.4608
     54 C         -2.394469   -0.298419   0.153444 C.2        1 UNL1     0.3042
     55 O         -1.811864   -1.280495   -0.304744 O.2        1 UNL1     -0.2512
     56 C         -3.408706   -0.496986   1.243676 C.3        1 UNL1     0.0332
     57 C         -1.571063   2.202552   3.277177 C.3        1 UNL1     -0.0567
     58 C         1.818929   7.198535   -1.211642 C.3        1 UNL1     0.0210
     59 C         -1.117568   5.575861   2.945107 C.3        1 UNL1     0.0372
     60 C         0.635189   5.214663   0.573078 C.2        1 UNL1     -0.0208
     61 C         1.552318   5.654108   1.435926 C.2        1 UNL1     0.0882
     62 H         4.687871   2.745849   0.543935 H        1 UNL1     0.0365
     63 H         6.32696   3.623791   -0.300358 H        1 UNL1     0.0576
     64 H         8.331926   1.507702   -1.299885 H        1 UNL1     0.0615
     65 H         8.25576   4.624483   -1.494137 H        1 UNL1     0.0622
     66 H         -1.439189   5.326805   0.505849 H        1 UNL1     0.0645
     67 H         -1.868457   3.625322   -0.686164 H        1 UNL1     0.0362
     68 H         -2.53704   2.494049   1.071446 H        1 UNL1     0.0741
     69 H         -1.183882   0.521034   2.212745 H        1 UNL1     0.0359
     70 H         0.924483   0.733097   2.926424 H        1 UNL1     0.0600
     71 H         1.808567   -0.398006   1.300474 H        1 UNL1     0.0348
     72 H         3.361944   1.477745   1.275521 H        1 UNL1     0.0602
     73 H         0.746275   5.409863   -0.464615 H        1 UNL1     0.0628
     74 H         1.541815   5.445817   2.506319 H        1 UNL1     0.1022
     75 H         10.910455   2.269691   -3.524856 H        1 UNL1     0.0279
     76 H         10.77401   3.481369   -4.735856 H        1 UNL1     0.0279
     77 H         11.888272   3.663766   -3.321484 H        1 UNL1     0.0279
     78 H         9.023654   4.815919   -5.08669 H        1 UNL1     0.1553
     79 H         7.750883   3.341798   -4.721659 H        1 UNL1     0.1484
     80 H         4.002381   2.729203   -4.835448 H        1 UNL1     0.0317
     81 H         4.730411   4.257644   -5.308487 H        1 UNL1     0.0317
     82 H         6.638759   3.070359   -6.423056 H        1 UNL1     0.0428
     83 H         5.080235   2.588908   -7.056231 H        1 UNL1     0.0428
     84 H         6.882916   -0.036923   -4.235152 H        1 UNL1     0.0428
     85 H         7.78665   1.375365   -4.656849 H        1 UNL1     0.0428
     86 H         6.507061   1.44909   -2.516272 H        1 UNL1     0.0317
     87 H         5.007017   1.216356   -3.289611 H        1 UNL1     0.0317
     88 H         7.218133   0.88241   -7.424839 H        1 UNL1     0.0429
     89 H         6.863718   -0.604062   -6.541082 H        1 UNL1     0.0429
     90 H         4.316622   0.276764   -7.351684 H        1 UNL1     0.0308
     91 H         6.303714   0.881725   -9.618905 H        1 UNL1     0.0233
     92 H         4.531557   0.801507   -9.787776 H        1 UNL1     0.0233
     93 H         5.269984   2.066258   -8.82875 H        1 UNL1     0.0233
     94 H         4.551596   -1.525413   -9.110655 H        1 UNL1     0.0233
     95 H         6.230007   -1.70442   -8.576593 H        1 UNL1     0.0233
     96 H         4.89804   -2.011532   -7.438376 H        1 UNL1     0.0233
     97 H         4.110193   10.531725   -0.146881 H        1 UNL1     0.0280
     98 H         5.717029   11.151322   -0.414022 H        1 UNL1     0.0280
     99 H         4.533631   11.146718   -1.755394 H        1 UNL1     0.0280
     100 H         6.642891   10.735884   -3.066823 H        1 UNL1     0.2922
     101 H         4.710086   0.914194   2.408327 H        1 UNL1     0.0236
     102 H         6.035248   2.141803   2.46295 H        1 UNL1     0.0236
     103 H         6.320932   0.528028   1.888831 H        1 UNL1     0.0236
     104 H         4.335426   -0.546767   1.252146 H        1 UNL1     0.2098
     105 H         0.700339   1.281645   -0.936857 H        1 UNL1     0.0234
     106 H         1.286047   -0.403949   -1.019416 H        1 UNL1     0.0234
     107 H         0.0   -0.0   0.0 H        1 UNL1     0.0234
     108 H         1.215825   3.262921   1.728442 H        1 UNL1     0.2098
     109 H         1.068208   3.061306   -0.864235 H        1 UNL1     0.0234
     110 H         -0.188419   2.322202   -1.907028 H        1 UNL1     0.0234
     111 H         0.045578   4.035106   -1.90004 H        1 UNL1     0.0234
     112 H         -3.503274   -1.562419   1.474447 H        1 UNL1     0.0342
     113 H         -3.166929   0.076387   2.137338 H        1 UNL1     0.0342
     114 H         -4.38194   -0.144527   0.875231 H        1 UNL1     0.0342
     115 H         -2.642413   1.961869   3.31552 H        1 UNL1     0.0234
     116 H         -1.135719   1.91653   4.236717 H        1 UNL1     0.0234
     117 H         -1.601762   3.30481   3.232162 H        1 UNL1     0.0234
     118 H         0.91733   7.679913   -0.794029 H        1 UNL1     0.0309
     119 H         2.180385   7.789403   -2.059242 H        1 UNL1     0.0309
     120 H         1.433389   6.264774   -1.635381 H        1 UNL1     0.0309
     121 H         -0.281909   6.265995   2.832215 H        1 UNL1     0.0524
     122 H         -2.020063   6.082189   2.564091 H        1 UNL1     0.0524
     123 H         -1.265095   5.334229   3.993889 H        1 UNL1     0.0524
@<TRIPOS>BOND
     1     1     2    1
     2     1    42    1
     3     2     3    2
     4     3     4    1
     5     4     5    2
     6     5     7    1
     7     6    75    1
     8     6    76    1
     9     6    77    1
    10     7     9   am
    11     9    10    1
    12    10    11    2
    13    10    43    1
    14    11    14    1
    15    11    15    1
    16    12    13   ar
    17    12    27   ar
    18    12    43    1
    19    13    14    1
    20    13    30   ar
    21    14    17    2
    22    15    16    1
    23    16    17    1
    24    16    18    1
    25    16    22    1
    26    18    19    1
    27    19    20    1
    28    20    21    1
    29    21    22    1
    30    23    24    1
    31    23    88    1
    32    23    89    1
    33    24    25    1
    34    24    26    1
    35    24    90    1
    36    25    91    1
    37    25    92    1
    38    25    93    1
    39    26    94    1
    40    26    95    1
    41    26    96    1
    42    27    28   ar
    43    28    29   ar
    44    29    30   ar
    45    29    31    1
    46    30    33    1
    47    31    32    1
    48    32    33    1
    49    32    35    1
    50    34    97    1
    51    34    98    1
    52    34    99    1
    53    35    61    1
    54    36    37    1
    55    36    60    1
    56    37    38    1
    57    38    39    1
    58    39    40    1
    59    40    41    1
    60    41    42    1
    61    45   100    1
    62    47   101    1
    63    47   102    1
    64    47   103    1
    65    48   104    1
    66    49   105    1
    67    49   106    1
    68    49   107    1
    69    50   108    1
    70    51    59    1
    71    52   109    1
    72    52   110    1
    73    52   111    1
    74    53    54    1
    75    54    55    2
    76    54    56    1
    77    56   112    1
    78    56   113    1
    79    56   114    1
    80    57   115    1
    81    57   116    1
    82    57   117    1
    83    58   118    1
    84    58   119    1
    85    58   120    1
    86    59   121    1
    87    59   122    1
    88    59   123    1
    89    60    61    2
    90     1    47    1
    91     1    62    1
    92     2    63    1
    93     3    64    1
    94     4    65    1
    95     5     6    1
    96     7     8    2
    97     9    78    1
    98    15    79    1
    99    18    80    1
   100    18    81    1
   101    19    82    1
   102    19    83    1
   103    20    23    1
   104    21    84    1
   105    21    85    1
   106    22    86    1
   107    22    87    1
   108    27    45    1
   109    28    34    1
   110    32    58    1
   111    33    46    2
   112    36    51    1
   113    36    66    1
   114    37    52    1
   115    37    67    1
   116    38    53    1
   117    38    68    1
   118    42    48    1
   119    42    72    1
   120    43    44    2
   121    60    73    1
   122    61    74    1
   123    39    69    1
   124    39    57    1
   125    40    70    1
   126    40    50    1
   127    41    71    1
   128    41    49    1
