@<TRIPOS>MOLECULE
*****
 123 128 0 0 0
SMALL
GASTEIGER

@<TRIPOS>ATOM
     1 C         0.251478   0.014026   4.119543 C.3        1 UNL1     0.0009
     2 C         -0.945937   -0.724031   5.327229 C.2        1 UNL1     -0.0787
     3 C         -2.067927   -0.580236   6.230838 C.2        1 UNL1     -0.0649
     4 C         -2.887666   -1.798187   7.074035 C.2        1 UNL1     -0.0542
     5 C         -4.087639   -2.139834   7.745169 C.2        1 UNL1     0.0115
     6 C         -5.418786   -1.569922   8.307815 C.3        1 UNL1     -0.0348
     7 C         -4.42354   -3.689491   7.995609 C.2        1 UNL1     0.2441
     8 O         -4.26738   -4.237729   9.078003 O.2        1 UNL1     -0.2702
     9 N         -5.15227   -4.308222   6.964942 N.am        1 UNL1     -0.2772
     10 C         -4.299551   -4.815523   6.011612 C.2        1 UNL1     0.1049
     11 C         -3.866985   -3.960012   5.103201 C.2        1 UNL1     0.0801
     12 C         -2.243455   -6.212335   5.731041 C.ar        1 UNL1     0.0753
     13 C         -1.730698   -5.153881   4.915342 C.ar        1 UNL1     0.0305
     14 C         -2.580035   -4.052004   4.468637 C.2        1 UNL1     0.0924
     15 N         -4.282848   -2.712779   4.823922 N.pl3        1 UNL1     -0.3170
     16 C         -3.600866   -2.27836   3.633782 C.3        1 UNL1     0.1275
     17 N         -2.304051   -3.050355   3.6383 N.2        1 UNL1     -0.2557
     18 C         -4.39826   -2.796943   2.440914 C.3        1 UNL1     0.0016
     19 C         -5.830368   -2.300584   2.560431 C.3        1 UNL1     0.0026
     20 N         -5.81981   -0.844558   2.590531 N.3        1 UNL1     -0.3018
     21 C         -5.026334   -0.250727   3.668552 C.3        1 UNL1     0.0026
     22 C         -3.590651   -0.759175   3.526453 C.3        1 UNL1     0.0016
     23 C         -7.135694   -0.267047   2.401922 C.3        1 UNL1     0.0012
     24 C         -7.609757   -0.468352   0.953993 C.3        1 UNL1     -0.0339
     25 C         -8.496183   -1.717601   0.82102 C.3        1 UNL1     -0.0615
     26 C         -8.323573   0.778563   0.4616 C.3        1 UNL1     -0.0615
     27 C         -1.461677   -7.319463   6.052299 C.ar        1 UNL1     0.1347
     28 C         -0.171613   -7.497819   5.58542 C.ar        1 UNL1     0.0342
     29 C         0.329159   -6.420129   4.824516 C.ar        1 UNL1     0.1435
     30 C         -0.429947   -5.288245   4.52482 C.ar        1 UNL1     0.0774
     31 O         1.528848   -6.490518   4.207428 O.3        1 UNL1     -0.4436
     32 C         1.47619   -5.473936   3.195172 C.3        1 UNL1     0.3143
     33 C         0.429727   -4.489365   3.676576 C.2        1 UNL1     0.2504
     34 C         0.632439   -8.764687   5.6784 C.3        1 UNL1     -0.0327
     35 O         2.734239   -4.788223   3.21426 O.2        1 UNL1     -0.4528
     36 C         3.324215   -3.597046   -0.341174 C.3        1 UNL1     0.0854
     37 C         2.420587   -2.673128   -1.245251 C.3        1 UNL1     0.0236
     38 C         3.156436   -1.375361   -1.833531 C.3        1 UNL1     0.1131
     39 C         3.958384   -0.419224   -0.861445 C.3        1 UNL1     0.0200
     40 C         3.318444   0.011713   0.617476 C.3        1 UNL1     0.0661
     41 C         1.755383   0.613426   0.886531 C.3        1 UNL1     0.0091
     42 C         0.635705   0.415978   2.326232 C.3        1 UNL1     0.0661
     43 C         -3.665069   -6.134886   6.149698 C.2        1 UNL1     0.2131
     44 O         -4.320476   -7.103387   6.489089 O.2        1 UNL1     -0.2851
     45 O         -2.020932   -8.283214   6.888874 O.3        1 UNL1     -0.5056
     46 O         0.338949   -3.306918   3.432789 O.2        1 UNL1     -0.2836
     47 C         1.323598   0.851958   4.866811 C.3        1 UNL1     -0.0566
     48 O         0.295726   1.857319   2.404128 O.3        1 UNL1     -0.3909
     49 C         0.922964   0.381908   -0.354828 C.3        1 UNL1     -0.0577
     50 O         3.642884   -0.948249   1.602836 O.3        1 UNL1     -0.3910
     51 O         4.59891   -3.087703   -0.019999 O.3        1 UNL1     -0.3753
     52 C         0.941295   -2.632593   -0.740276 C.3        1 UNL1     -0.0564
     53 O         2.404698   -0.713678   -2.951293 O.3        1 UNL1     -0.4608
     54 C         2.574521   0.581173   -3.366563 C.2        1 UNL1     0.3042
     55 O         1.777736   1.512002   -3.254624 O.2        1 UNL1     -0.2512
     56 C         3.924867   0.847491   -3.968521 C.3        1 UNL1     0.0332
     57 C         5.494551   -0.862136   -0.908291 C.3        1 UNL1     -0.0567
     58 C         0.959773   -6.162388   1.910308 C.3        1 UNL1     0.0210
     59 C         5.599308   -4.078373   0.21161 C.3        1 UNL1     0.0372
     60 C         2.699555   -4.028937   0.938838 C.2        1 UNL1     -0.0208
     61 C         3.200159   -4.070281   2.174326 C.2        1 UNL1     0.0882
     62 H         0.683119   -0.982645   3.967735 H        1 UNL1     0.0365
     63 H         -0.56864   -1.746937   5.388715 H        1 UNL1     0.0576
     64 H         -2.610414   0.36321   6.324244 H        1 UNL1     0.0615
     65 H         -2.228582   -2.665991   6.98455 H        1 UNL1     0.0622
     66 H         3.462063   -4.512749   -0.933232 H        1 UNL1     0.0645
     67 H         2.260124   -3.268422   -2.160913 H        1 UNL1     0.0362
     68 H         3.920089   -1.863998   -2.457702 H        1 UNL1     0.0741
     69 H         4.094982   0.537115   -1.348442 H        1 UNL1     0.0359
     70 H         3.959951   0.881362   0.856728 H        1 UNL1     0.0600
     71 H         1.952233   1.701197   0.816083 H        1 UNL1     0.0348
     72 H         1.645189   0.17897   2.692408 H        1 UNL1     0.0602
     73 H         1.749381   -4.457366   0.736681 H        1 UNL1     0.0628
     74 H         4.138737   -3.603676   2.475306 H        1 UNL1     0.1022
     75 H         -5.484091   -0.47068   8.122246 H        1 UNL1     0.0279
     76 H         -6.335254   -1.939126   7.853015 H        1 UNL1     0.0279
     77 H         -5.467069   -1.607646   9.405971 H        1 UNL1     0.0279
     78 H         -5.748878   -3.621629   6.508076 H        1 UNL1     0.1553
     79 H         -5.174451   -2.347185   5.103778 H        1 UNL1     0.1484
     80 H         -3.92777   -2.443466   1.515463 H        1 UNL1     0.0317
     81 H         -4.379606   -3.891441   2.403798 H        1 UNL1     0.0317
     82 H         -6.330713   -2.711256   3.449765 H        1 UNL1     0.0428
     83 H         -6.381625   -2.683299   1.700957 H        1 UNL1     0.0428
     84 H         -4.969769   0.841231   3.62124 H        1 UNL1     0.0428
     85 H         -5.462911   -0.452716   4.656437 H        1 UNL1     0.0428
     86 H         -3.01478   -0.204775   4.244088 H        1 UNL1     0.0317
     87 H         -3.173203   -0.438802   2.564063 H        1 UNL1     0.0317
     88 H         -7.834507   -0.782897   3.073378 H        1 UNL1     0.0429
     89 H         -7.14846   0.795021   2.67873 H        1 UNL1     0.0429
     90 H         -6.735552   -0.589643   0.303404 H        1 UNL1     0.0308
     91 H         -9.368751   -1.657946   1.478416 H        1 UNL1     0.0233
     92 H         -8.832453   -1.844619   -0.210677 H        1 UNL1     0.0233
     93 H         -7.96203   -2.638628   1.084127 H        1 UNL1     0.0233
     94 H         -8.825278   0.575366   -0.490681 H        1 UNL1     0.0233
     95 H         -9.084634   1.083737   1.185213 H        1 UNL1     0.0233
     96 H         -7.624542   1.606559   0.314134 H        1 UNL1     0.0233
     97 H         1.604588   -8.66597   5.204678 H        1 UNL1     0.0280
     98 H         0.83291   -9.052179   6.718792 H        1 UNL1     0.0280
     99 H         0.087898   -9.584651   5.182185 H        1 UNL1     0.0280
     100 H         -2.003566   -9.158665   6.544045 H        1 UNL1     0.2922
     101 H         2.045331   1.246988   4.152171 H        1 UNL1     0.0236
     102 H         1.806607   0.306003   5.676514 H        1 UNL1     0.0236
     103 H         0.890035   1.744066   5.348846 H        1 UNL1     0.0236
     104 H         0.89752   2.267521   3.055702 H        1 UNL1     0.2098
     105 H         0.712488   1.280991   -0.928553 H        1 UNL1     0.0234
     106 H         1.292382   -0.406652   -1.010291 H        1 UNL1     0.0234
     107 H         0.0   -0.0   0.0 H        1 UNL1     0.0234
     108 H         3.207055   -1.784242   1.348011 H        1 UNL1     0.2098
     109 H         0.862656   -2.249203   0.286632 H        1 UNL1     0.0234
     110 H         0.277849   -2.059717   -1.397084 H        1 UNL1     0.0234
     111 H         0.493498   -3.635062   -0.71839 H        1 UNL1     0.0234
     112 H         3.99578   1.895692   -4.27445 H        1 UNL1     0.0342
     113 H         4.7349   0.582682   -3.290607 H        1 UNL1     0.0342
     114 H         4.027744   0.226197   -4.86884 H        1 UNL1     0.0342
     115 H         5.914371   -0.773883   -1.9198 H        1 UNL1     0.0234
     116 H         6.140511   -0.296179   -0.234142 H        1 UNL1     0.0234
     117 H         5.649106   -1.936046   -0.706374 H        1 UNL1     0.0234
     118 H         1.768535   -6.675676   1.361268 H        1 UNL1     0.0309
     119 H         0.148695   -6.872642   2.099767 H        1 UNL1     0.0309
     120 H         0.57132   -5.447018   1.177194 H        1 UNL1     0.0309
     121 H         5.28333   -4.671821   1.069126 H        1 UNL1     0.0524
     122 H         5.713744   -4.765279   -0.643435 H        1 UNL1     0.0524
     123 H         6.556168   -3.605926   0.414849 H        1 UNL1     0.0524
@<TRIPOS>BOND
     1     1     2    1
     2     1    42    1
     3     2     3    2
     4     3     4    1
     5     4     5    2
     6     5     7    1
     7     6    75    1
     8     6    76    1
     9     6    77    1
    10     7     9   am
    11     9    10    1
    12    10    11    2
    13    10    43    1
    14    11    14    1
    15    11    15    1
    16    12    13   ar
    17    12    27   ar
    18    12    43    1
    19    13    14    1
    20    13    30   ar
    21    14    17    2
    22    15    16    1
    23    16    17    1
    24    16    18    1
    25    16    22    1
    26    18    19    1
    27    19    20    1
    28    20    21    1
    29    21    22    1
    30    23    24    1
    31    23    88    1
    32    23    89    1
    33    24    25    1
    34    24    26    1
    35    24    90    1
    36    25    91    1
    37    25    92    1
    38    25    93    1
    39    26    94    1
    40    26    95    1
    41    26    96    1
    42    27    28   ar
    43    28    29   ar
    44    29    30   ar
    45    29    31    1
    46    30    33    1
    47    31    32    1
    48    32    33    1
    49    32    35    1
    50    34    97    1
    51    34    98    1
    52    34    99    1
    53    35    61    1
    54    36    37    1
    55    36    60    1
    56    37    38    1
    57    38    39    1
    58    39    40    1
    59    40    41    1
    60    41    42    1
    61    45   100    1
    62    47   101    1
    63    47   102    1
    64    47   103    1
    65    48   104    1
    66    49   105    1
    67    49   106    1
    68    49   107    1
    69    50   108    1
    70    51    59    1
    71    52   109    1
    72    52   110    1
    73    52   111    1
    74    53    54    1
    75    54    55    2
    76    54    56    1
    77    56   112    1
    78    56   113    1
    79    56   114    1
    80    57   115    1
    81    57   116    1
    82    57   117    1
    83    58   118    1
    84    58   119    1
    85    58   120    1
    86    59   121    1
    87    59   122    1
    88    59   123    1
    89    60    61    2
    90     1    47    1
    91     1    62    1
    92     2    63    1
    93     3    64    1
    94     4    65    1
    95     5     6    1
    96     7     8    2
    97     9    78    1
    98    15    79    1
    99    18    80    1
   100    18    81    1
   101    19    82    1
   102    19    83    1
   103    20    23    1
   104    21    84    1
   105    21    85    1
   106    22    86    1
   107    22    87    1
   108    27    45    1
   109    28    34    1
   110    32    58    1
   111    33    46    2
   112    36    51    1
   113    36    66    1
   114    37    52    1
   115    37    67    1
   116    38    53    1
   117    38    68    1
   118    42    48    1
   119    42    72    1
   120    43    44    2
   121    60    73    1
   122    61    74    1
   123    39    69    1
   124    39    57    1
   125    40    70    1
   126    40    50    1
   127    41    71    1
   128    41    49    1
