@<TRIPOS>MOLECULE
*****
 123 128 0 0 0
SMALL
GASTEIGER

@<TRIPOS>ATOM
     1 C         -1.758112   4.457831   0.910782 C.3        1 UNL1     0.0009
     2 C         -3.350016   5.28635   1.376005 C.2        1 UNL1     -0.0787
     3 C         -4.643369   5.820492   1.004555 C.2        1 UNL1     -0.0649
     4 C         -5.852029   6.423974   2.025 C.2        1 UNL1     -0.0542
     5 C         -7.231276   6.727129   2.138366 C.2        1 UNL1     0.0115
     6 C         -8.557858   6.862097   1.341316 C.3        1 UNL1     -0.0348
     7 C         -7.868061   6.913813   3.600092 C.2        1 UNL1     0.2441
     8 O         -8.113942   8.010247   4.083726 O.2        1 UNL1     -0.2702
     9 N         -8.36535   5.734204   4.180933 N.am        1 UNL1     -0.2772
     10 C         -7.370885   5.084775   4.875631 C.2        1 UNL1     0.1049
     11 C         -6.568082   4.316905   4.161415 C.2        1 UNL1     0.0801
     12 C         -5.570838   5.454071   6.572919 C.ar        1 UNL1     0.0753
     13 C         -4.685851   4.792312   5.663259 C.ar        1 UNL1     0.0305
     14 C         -5.186396   4.086514   4.485823 C.2        1 UNL1     0.0924
     15 N         -6.68264   3.892973   2.891106 N.pl3        1 UNL1     -0.3170
     16 C         -5.63185   2.940262   2.649367 C.3        1 UNL1     0.1275
     17 N         -4.53032   3.34361   3.598927 N.2        1 UNL1     -0.2557
     18 C         -6.132219   1.582679   3.133413 C.3        1 UNL1     0.0016
     19 C         -7.440918   1.266617   2.427013 C.3        1 UNL1     0.0026
     20 N         -7.206087   1.256438   0.989731 N.3        1 UNL1     -0.3018
     21 C         -6.664926   2.500866   0.439356 C.3        1 UNL1     0.0026
     22 C         -5.348406   2.796718   1.15987 C.3        1 UNL1     0.0016
     23 C         -8.304827   0.677094   0.242889 C.3        1 UNL1     0.0012
     24 C         -9.639144   1.307715   0.671456 C.3        1 UNL1     -0.0339
     25 C         -10.788021   0.287608   0.612127 C.3        1 UNL1     -0.0615
     26 C         -9.505471   1.919232   2.055276 C.3        1 UNL1     -0.0615
     27 C         -5.0996   6.020412   7.754998 C.ar        1 UNL1     0.1347
     28 C         -3.776172   5.953799   8.152682 C.ar        1 UNL1     0.0342
     29 C         -2.914915   5.34041   7.218255 C.ar        1 UNL1     0.1435
     30 C         -3.366831   4.800565   6.013449 C.ar        1 UNL1     0.0774
     31 O         -1.617234   5.10076   7.507393 O.3        1 UNL1     -0.4436
     32 C         -1.218212   4.087956   6.571506 C.3        1 UNL1     0.3143
     33 C         -2.186138   4.215955   5.412649 C.2        1 UNL1     0.2504
     34 C         -3.244992   6.312888   9.512462 C.3        1 UNL1     -0.0327
     35 O         0.076156   4.451894   6.076114 O.2        1 UNL1     -0.4528
     36 C         1.829269   1.188355   5.249074 C.3        1 UNL1     0.0854
     37 C         1.378037   0.034477   4.273125 C.3        1 UNL1     0.0236
     38 C         2.448144   -0.351869   3.142925 C.3        1 UNL1     0.1131
     39 C         3.085303   0.78324   2.244134 C.3        1 UNL1     0.0200
     40 C         2.131398   1.999383   1.616838 C.3        1 UNL1     0.0661
     41 C         0.673491   1.785259   0.77644 C.3        1 UNL1     0.0091
     42 C         -0.823781   2.842662   0.702415 C.3        1 UNL1     0.0661
     43 C         -7.021239   5.439259   6.259265 C.2        1 UNL1     0.2131
     44 O         -7.892197   5.601422   7.094652 O.2        1 UNL1     -0.2851
     45 O         -6.019284   6.685895   8.562929 O.3        1 UNL1     -0.5056
     46 O         -2.013638   3.92228   4.250818 O.2        1 UNL1     -0.2836
     47 C         -0.820869   5.459817   0.184433 C.3        1 UNL1     -0.0566
     48 O         -0.936341   2.776786   -0.77478 O.3        1 UNL1     -0.3909
     49 C         0.199698   0.362835   0.975751 C.3        1 UNL1     -0.0577
     50 O         2.006098   3.063784   2.538289 O.3        1 UNL1     -0.3910
     51 O         3.025793   1.851147   4.9078 O.3        1 UNL1     -0.3753
     52 C         -0.157212   0.086531   3.981146 C.3        1 UNL1     -0.0564
     53 O         2.158898   -1.658428   2.463537 O.3        1 UNL1     -0.4608
     54 C         3.068979   -2.412641   1.770109 C.2        1 UNL1     0.3042
     55 O         3.188696   -2.502385   0.548858 O.2        1 UNL1     -0.2512
     56 C         4.038035   -3.147097   2.652276 C.3        1 UNL1     0.0332
     57 C         4.480461   1.197496   2.907534 C.3        1 UNL1     -0.0567
     58 C         -1.454072   2.728916   7.270727 C.3        1 UNL1     0.0210
     59 C         2.873813   3.231345   4.579438 C.3        1 UNL1     0.0372
     60 C         0.807716   2.243602   5.489998 C.2        1 UNL1     -0.0208
     61 C         0.925607   3.571892   5.512186 C.2        1 UNL1     0.0882
     62 H         -1.466717   4.466806   1.968004 H        1 UNL1     0.0365
     63 H         -3.174468   5.484297   2.435472 H        1 UNL1     0.0576
     64 H         -5.031637   5.724994   -0.011927 H        1 UNL1     0.0615
     65 H         -5.342469   6.554912   2.983482 H        1 UNL1     0.0622
     66 H         1.980115   0.688572   6.216291 H        1 UNL1     0.0645
     67 H         1.38949   -0.870726   4.904819 H        1 UNL1     0.0362
     68 H         3.268392   -0.712893   3.781969 H        1 UNL1     0.0741
     69 H         3.505312   0.329534   1.356355 H        1 UNL1     0.0359
     70 H         2.809933   2.389471   0.834226 H        1 UNL1     0.0600
     71 H         1.053899   1.743664   -0.263039 H        1 UNL1     0.0348
     72 H         -0.010417   3.492995   1.055717 H        1 UNL1     0.0602
     73 H         -0.102523   1.786584   5.789745 H        1 UNL1     0.0628
     74 H         1.803085   4.118957   5.165791 H        1 UNL1     0.1022
     75 H         -9.297193   7.474704   1.911518 H        1 UNL1     0.0279
     76 H         -8.501399   7.387898   0.390835 H        1 UNL1     0.0279
     77 H         -9.095417   5.907348   1.245476 H        1 UNL1     0.0279
     78 H         -8.690547   5.104098   3.450666 H        1 UNL1     0.1553
     79 H         -7.546371   3.891062   2.380325 H        1 UNL1     0.1484
     80 H         -5.369191   0.824023   2.921293 H        1 UNL1     0.0317
     81 H         -6.279501   1.584197   4.21875 H        1 UNL1     0.0317
     82 H         -8.231148   1.983708   2.693901 H        1 UNL1     0.0428
     83 H         -7.78088   0.295487   2.788101 H        1 UNL1     0.0428
     84 H         -6.423063   2.440524   -0.626323 H        1 UNL1     0.0428
     85 H         -7.389235   3.324716   0.502321 H        1 UNL1     0.0428
     86 H         -4.917587   3.634382   0.643438 H        1 UNL1     0.0317
     87 H         -4.630417   1.988278   0.975442 H        1 UNL1     0.0317
     88 H         -8.143736   0.889956   -0.822022 H        1 UNL1     0.0429
     89 H         -8.329594   -0.414765   0.352454 H        1 UNL1     0.0429
     90 H         -9.875907   2.139842   -0.002132 H        1 UNL1     0.0308
     91 H         -10.499915   -0.663017   1.070831 H        1 UNL1     0.0233
     92 H         -11.675453   0.675416   1.117775 H        1 UNL1     0.0233
     93 H         -11.095405   0.064167   -0.41667 H        1 UNL1     0.0233
     94 H         -10.491465   2.01521   2.522651 H        1 UNL1     0.0233
     95 H         -8.892347   1.274413   2.691082 H        1 UNL1     0.0233
     96 H         -9.046168   2.910709   2.010742 H        1 UNL1     0.0233
     97 H         -3.639236   7.260704   9.866647 H        1 UNL1     0.0280
     98 H         -3.519093   5.570292   10.273169 H        1 UNL1     0.0280
     99 H         -2.14613   6.389551   9.470974 H        1 UNL1     0.0280
     100 H         -6.445643   6.141475   9.201246 H        1 UNL1     0.2922
     101 H         -0.028378   5.778712   0.86113 H        1 UNL1     0.0236
     102 H         -1.352234   6.305652   -0.250535 H        1 UNL1     0.0236
     103 H         -0.293337   4.99293   -0.664048 H        1 UNL1     0.0236
     104 H         -0.560039   3.602982   -1.136399 H        1 UNL1     0.2098
     105 H         0.934796   -0.295671   1.431616 H        1 UNL1     0.0234
     106 H         -0.758961   0.269438   1.485828 H        1 UNL1     0.0234
     107 H         -0.0   0.0   0.0 H        1 UNL1     0.0234
     108 H         1.86303   3.879815   2.021189 H        1 UNL1     0.2098
     109 H         -0.372969   0.328334   2.931054 H        1 UNL1     0.0234
     110 H         -0.679804   -0.834872   4.259815 H        1 UNL1     0.0234
     111 H         -0.655756   0.865014   4.573906 H        1 UNL1     0.0234
     112 H         4.746997   -3.710575   2.038101 H        1 UNL1     0.0342
     113 H         4.558772   -2.47749   3.33514 H        1 UNL1     0.0342
     114 H         3.471818   -3.866996   3.25916 H        1 UNL1     0.0342
     115 H         5.038472   1.903863   2.277567 H        1 UNL1     0.0234
     116 H         4.385089   1.645841   3.898463 H        1 UNL1     0.0234
     117 H         5.198622   0.362598   2.97917 H        1 UNL1     0.0234
     118 H         -1.662362   2.847778   8.348453 H        1 UNL1     0.0309
     119 H         -2.258154   2.14405   6.812921 H        1 UNL1     0.0309
     120 H         -0.565773   2.088008   7.254354 H        1 UNL1     0.0309
     121 H         3.696859   3.50598   3.920251 H        1 UNL1     0.0524
     122 H         1.93408   3.431631   4.038306 H        1 UNL1     0.0524
     123 H         2.897508   3.836982   5.480956 H        1 UNL1     0.0524
@<TRIPOS>BOND
     1     1     2    1
     2     1    42    1
     3     2     3    2
     4     3     4    1
     5     4     5    2
     6     5     7    1
     7     6    75    1
     8     6    76    1
     9     6    77    1
    10     7     9   am
    11     9    10    1
    12    10    11    2
    13    10    43    1
    14    11    14    1
    15    11    15    1
    16    12    13   ar
    17    12    27   ar
    18    12    43    1
    19    13    14    1
    20    13    30   ar
    21    14    17    2
    22    15    16    1
    23    16    17    1
    24    16    18    1
    25    16    22    1
    26    18    19    1
    27    19    20    1
    28    20    21    1
    29    21    22    1
    30    23    24    1
    31    23    88    1
    32    23    89    1
    33    24    25    1
    34    24    26    1
    35    24    90    1
    36    25    91    1
    37    25    92    1
    38    25    93    1
    39    26    94    1
    40    26    95    1
    41    26    96    1
    42    27    28   ar
    43    28    29   ar
    44    29    30   ar
    45    29    31    1
    46    30    33    1
    47    31    32    1
    48    32    33    1
    49    32    35    1
    50    34    97    1
    51    34    98    1
    52    34    99    1
    53    35    61    1
    54    36    37    1
    55    36    60    1
    56    37    38    1
    57    38    39    1
    58    39    40    1
    59    40    41    1
    60    41    42    1
    61    45   100    1
    62    47   101    1
    63    47   102    1
    64    47   103    1
    65    48   104    1
    66    49   105    1
    67    49   106    1
    68    49   107    1
    69    50   108    1
    70    51    59    1
    71    52   109    1
    72    52   110    1
    73    52   111    1
    74    53    54    1
    75    54    55    2
    76    54    56    1
    77    56   112    1
    78    56   113    1
    79    56   114    1
    80    57   115    1
    81    57   116    1
    82    57   117    1
    83    58   118    1
    84    58   119    1
    85    58   120    1
    86    59   121    1
    87    59   122    1
    88    59   123    1
    89    60    61    2
    90     1    47    1
    91     1    62    1
    92     2    63    1
    93     3    64    1
    94     4    65    1
    95     5     6    1
    96     7     8    2
    97     9    78    1
    98    15    79    1
    99    18    80    1
   100    18    81    1
   101    19    82    1
   102    19    83    1
   103    20    23    1
   104    21    84    1
   105    21    85    1
   106    22    86    1
   107    22    87    1
   108    27    45    1
   109    28    34    1
   110    32    58    1
   111    33    46    2
   112    36    51    1
   113    36    66    1
   114    37    52    1
   115    37    67    1
   116    38    53    1
   117    38    68    1
   118    42    48    1
   119    42    72    1
   120    43    44    2
   121    60    73    1
   122    61    74    1
   123    39    69    1
   124    39    57    1
   125    40    70    1
   126    40    50    1
   127    41    71    1
   128    41    49    1
