@<TRIPOS>MOLECULE
*****
 123 128 0 0 0
SMALL
GASTEIGER

@<TRIPOS>ATOM
     1 C         -4.633639   0.020253   2.614739 C.3        1 UNL1     0.0009
     2 C         -5.993999   1.077978   3.298606 C.2        1 UNL1     -0.0787
     3 C         -6.554509   1.85851   4.381494 C.2        1 UNL1     -0.0649
     4 C         -7.959394   2.803164   4.364631 C.2        1 UNL1     -0.0542
     5 C         -8.65442   3.861701   4.99986 C.2        1 UNL1     0.0115
     6 C         -8.672965   4.779047   6.253437 C.3        1 UNL1     -0.0348
     7 C         -9.837346   4.601296   4.205711 C.2        1 UNL1     0.2441
     8 O         -11.021555   4.381449   4.419817 O.2        1 UNL1     -0.2702
     9 N         -9.429717   5.703889   3.434816 N.am        1 UNL1     -0.2772
     10 C         -9.058122   5.29718   2.173933 C.2        1 UNL1     0.1049
     11 C         -7.82599   4.838157   2.04995 C.2        1 UNL1     0.0801
     12 C         -9.812014   3.907664   0.235318 C.ar        1 UNL1     0.0753
     13 C         -8.521717   3.289618   0.277288 C.ar        1 UNL1     0.0305
     14 C         -7.44208   3.827606   1.101912 C.2        1 UNL1     0.0924
     15 N         -6.793361   4.892726   2.908568 N.pl3        1 UNL1     -0.3170
     16 C         -5.626774   4.40124   2.224631 C.3        1 UNL1     0.1275
     17 N         -6.170015   3.448862   1.187525 N.2        1 UNL1     -0.2557
     18 C         -5.028637   5.5728   1.451728 C.3        1 UNL1     0.0016
     19 C         -4.754013   6.70805   2.425062 C.3        1 UNL1     0.0026
     20 N         -3.835281   6.233127   3.450444 N.3        1 UNL1     -0.3018
     21 C         -4.297112   5.067867   4.207576 C.3        1 UNL1     0.0026
     22 C         -4.562464   3.938316   3.210781 C.3        1 UNL1     0.0016
     23 C         -3.277013   7.306561   4.248392 C.3        1 UNL1     0.0012
     24 C         -1.772557   7.085778   4.471156 C.3        1 UNL1     -0.0339
     25 C         -1.293737   7.748138   5.773487 C.3        1 UNL1     -0.0615
     26 C         -1.455392   5.600606   4.449937 C.3        1 UNL1     -0.0615
     27 C         -10.79737   3.462359   -0.642687 C.ar        1 UNL1     0.1347
     28 C         -10.597188   2.437612   -1.550362 C.ar        1 UNL1     0.0342
     29 C         -9.33582   1.811965   -1.457192 C.ar        1 UNL1     0.1435
     30 C         -8.351582   2.223645   -0.557739 C.ar        1 UNL1     0.0774
     31 O         -8.948533   0.870965   -2.34575 O.3        1 UNL1     -0.4436
     32 C         -7.517981   0.83197   -2.2323 C.3        1 UNL1     0.3143
     33 C         -7.215217   1.375274   -0.850501 C.2        1 UNL1     0.2504
     34 C         -11.51266   2.074499   -2.686214 C.3        1 UNL1     -0.0327
     35 O         -7.128035   -0.546868   -2.233105 O.2        1 UNL1     -0.4528
     36 C         -3.666905   -0.648586   -3.7882 C.3        1 UNL1     0.0854
     37 C         -2.352246   0.100458   -3.343084 C.3        1 UNL1     0.0236
     38 C         -1.087331   -0.850603   -3.08382 C.3        1 UNL1     0.1131
     39 C         -1.234316   -2.113373   -2.142503 C.3        1 UNL1     0.0200
     40 C         -2.062377   -1.999302   -0.698986 C.3        1 UNL1     0.0661
     41 C         -1.82945   -0.810952   0.488945 C.3        1 UNL1     0.0091
     42 C         -3.019245   -0.048264   1.658603 C.3        1 UNL1     0.0661
     43 C         -10.036646   5.0964   1.094798 C.2        1 UNL1     0.2131
     44 O         -10.901416   5.926901   0.882243 O.2        1 UNL1     -0.2851
     45 O         -12.040856   4.088626   -0.588181 O.3        1 UNL1     -0.5056
     46 O         -6.261657   1.142691   -0.141643 O.2        1 UNL1     -0.2836
     47 C         -4.694218   -1.402499   3.232872 C.3        1 UNL1     -0.0566
     48 O         -2.135522   -0.206708   2.838877 O.3        1 UNL1     -0.3909
     49 C         -1.007559   0.313647   -0.100347 C.3        1 UNL1     -0.0577
     50 O         -3.444264   -2.222254   -0.894957 O.3        1 UNL1     -0.3910
     51 O         -3.621737   -2.056621   -3.735013 O.3        1 UNL1     -0.3753
     52 C         -2.66473   1.334109   -2.434564 C.3        1 UNL1     -0.0564
     53 O         0.21575   -0.109831   -3.009239 O.3        1 UNL1     -0.4608
     54 C         1.257794   -0.24341   -3.889143 C.2        1 UNL1     0.3042
     55 O         1.64494   -1.274671   -4.437284 O.2        1 UNL1     -0.2512
     56 C         1.930066   1.056827   -4.227002 C.3        1 UNL1     0.0332
     57 C         -1.532967   -3.377971   -3.07512 C.3        1 UNL1     -0.0567
     58 C         -6.968395   1.819354   -3.288026 C.3        1 UNL1     0.0210
     59 C         -2.58854   -2.653166   -4.517639 C.3        1 UNL1     0.0372
     60 C         -4.902111   -0.231327   -3.070341 C.2        1 UNL1     -0.0208
     61 C         -5.885737   -0.963104   -2.545243 C.2        1 UNL1     0.0882
     62 H         -5.176216   -0.028707   1.662939 H        1 UNL1     0.0365
     63 H         -6.714365   1.038339   2.478867 H        1 UNL1     0.0576
     64 H         -5.998422   2.039721   5.304011 H        1 UNL1     0.0615
     65 H         -8.473159   2.489862   3.45174 H        1 UNL1     0.0622
     66 H         -3.812537   -0.351346   -4.836287 H        1 UNL1     0.0645
     67 H         -2.034755   0.645904   -4.248759 H        1 UNL1     0.0362
     68 H         -0.951671   -1.256756   -4.097801 H        1 UNL1     0.0741
     69 H         -0.248815   -2.428339   -1.826288 H        1 UNL1     0.0359
     70 H         -1.701989   -2.918781   -0.199247 H        1 UNL1     0.0600
     71 H         -1.078155   -1.318443   1.125314 H        1 UNL1     0.0348
     72 H         -3.482972   -0.987468   1.323686 H        1 UNL1     0.0602
     73 H         -4.995705   0.825031   -3.121292 H        1 UNL1     0.0628
     74 H         -5.842376   -2.043495   -2.403424 H        1 UNL1     0.1022
     75 H         -7.934985   4.421798   7.011587 H        1 UNL1     0.0279
     76 H         -8.371605   5.813175   6.102337 H        1 UNL1     0.0279
     77 H         -9.614492   4.709161   6.817657 H        1 UNL1     0.0279
     78 H         -8.618874   6.142166   3.866702 H        1 UNL1     0.1553
     79 H         -6.742313   5.53452   3.678261 H        1 UNL1     0.1484
     80 H         -4.1095   5.240779   0.954017 H        1 UNL1     0.0317
     81 H         -5.709038   5.90864   0.661843 H        1 UNL1     0.0317
     82 H         -5.681708   7.093864   2.872771 H        1 UNL1     0.0428
     83 H         -4.329643   7.533592   1.852838 H        1 UNL1     0.0428
     84 H         -3.55637   4.682942   4.915351 H        1 UNL1     0.0428
     85 H         -5.166865   5.306635   4.835139 H        1 UNL1     0.0428
     86 H         -4.768461   3.068642   3.806784 H        1 UNL1     0.0317
     87 H         -3.63495   3.674048   2.688309 H        1 UNL1     0.0317
     88 H         -3.414681   8.247331   3.69949 H        1 UNL1     0.0429
     89 H         -3.807627   7.4109   5.203555 H        1 UNL1     0.0429
     90 H         -1.217379   7.522623   3.632611 H        1 UNL1     0.0308
     91 H         -0.365322   8.305807   5.618077 H        1 UNL1     0.0233
     92 H         -2.056773   8.424267   6.166214 H        1 UNL1     0.0233
     93 H         -1.096376   7.016334   6.56617 H        1 UNL1     0.0233
     94 H         -0.46918   5.418667   4.890527 H        1 UNL1     0.0233
     95 H         -2.194746   5.052181   5.040316 H        1 UNL1     0.0233
     96 H         -1.456008   5.206969   3.429634 H        1 UNL1     0.0233
     97 H         -11.092106   2.343711   -3.650521 H        1 UNL1     0.0280
     98 H         -11.705513   0.994756   -2.73333 H        1 UNL1     0.0280
     99 H         -12.473479   2.6019   -2.568867 H        1 UNL1     0.0280
     100 H         -12.551741   4.013795   -1.374958 H        1 UNL1     0.2922
     101 H         -4.058526   -2.078842   2.66181 H        1 UNL1     0.0236
     102 H         -5.710041   -1.783236   3.333505 H        1 UNL1     0.0236
     103 H         -4.282101   -1.427637   4.255477 H        1 UNL1     0.0236
     104 H         -1.520549   0.552656   2.85095 H        1 UNL1     0.2098
     105 H         -1.194111   0.501477   -1.154733 H        1 UNL1     0.0234
     106 H         -1.043395   1.246774   0.461718 H        1 UNL1     0.0234
     107 H         0.0   0.0   0.0 H        1 UNL1     0.0234
     108 H         -3.808683   -1.424693   -1.324915 H        1 UNL1     0.2098
     109 H         -3.3278   1.076496   -1.596897 H        1 UNL1     0.0234
     110 H         -1.763981   1.825436   -2.051168 H        1 UNL1     0.0234
     111 H         -3.183274   2.125881   -2.991478 H        1 UNL1     0.0234
     112 H         2.756939   0.878883   -4.921237 H        1 UNL1     0.0342
     113 H         1.230388   1.78662   -4.631596 H        1 UNL1     0.0342
     114 H         2.350726   1.475934   -3.302579 H        1 UNL1     0.0342
     115 H         -1.11867   -3.248018   -4.084407 H        1 UNL1     0.0234
     116 H         -1.148356   -4.320806   -2.681186 H        1 UNL1     0.0234
     117 H         -2.604559   -3.514965   -3.300654 H        1 UNL1     0.0234
     118 H         -6.441301   2.671373   -2.824083 H        1 UNL1     0.0309
     119 H         -6.306227   1.343121   -4.018052 H        1 UNL1     0.0309
     120 H         -7.763658   2.299995   -3.868239 H        1 UNL1     0.0309
     121 H         -2.0612   -3.363293   -3.881253 H        1 UNL1     0.0524
     122 H         -2.987221   -3.212781   -5.380148 H        1 UNL1     0.0524
     123 H         -1.902737   -1.891629   -4.877959 H        1 UNL1     0.0524
@<TRIPOS>BOND
     1     1     2    1
     2     1    42    1
     3     2     3    2
     4     3     4    1
     5     4     5    2
     6     5     7    1
     7     6    75    1
     8     6    76    1
     9     6    77    1
    10     7     9   am
    11     9    10    1
    12    10    11    2
    13    10    43    1
    14    11    14    1
    15    11    15    1
    16    12    13   ar
    17    12    27   ar
    18    12    43    1
    19    13    14    1
    20    13    30   ar
    21    14    17    2
    22    15    16    1
    23    16    17    1
    24    16    18    1
    25    16    22    1
    26    18    19    1
    27    19    20    1
    28    20    21    1
    29    21    22    1
    30    23    24    1
    31    23    88    1
    32    23    89    1
    33    24    25    1
    34    24    26    1
    35    24    90    1
    36    25    91    1
    37    25    92    1
    38    25    93    1
    39    26    94    1
    40    26    95    1
    41    26    96    1
    42    27    28   ar
    43    28    29   ar
    44    29    30   ar
    45    29    31    1
    46    30    33    1
    47    31    32    1
    48    32    33    1
    49    32    35    1
    50    34    97    1
    51    34    98    1
    52    34    99    1
    53    35    61    1
    54    36    37    1
    55    36    60    1
    56    37    38    1
    57    38    39    1
    58    39    40    1
    59    40    41    1
    60    41    42    1
    61    45   100    1
    62    47   101    1
    63    47   102    1
    64    47   103    1
    65    48   104    1
    66    49   105    1
    67    49   106    1
    68    49   107    1
    69    50   108    1
    70    51    59    1
    71    52   109    1
    72    52   110    1
    73    52   111    1
    74    53    54    1
    75    54    55    2
    76    54    56    1
    77    56   112    1
    78    56   113    1
    79    56   114    1
    80    57   115    1
    81    57   116    1
    82    57   117    1
    83    58   118    1
    84    58   119    1
    85    58   120    1
    86    59   121    1
    87    59   122    1
    88    59   123    1
    89    60    61    2
    90     1    47    1
    91     1    62    1
    92     2    63    1
    93     3    64    1
    94     4    65    1
    95     5     6    1
    96     7     8    2
    97     9    78    1
    98    15    79    1
    99    18    80    1
   100    18    81    1
   101    19    82    1
   102    19    83    1
   103    20    23    1
   104    21    84    1
   105    21    85    1
   106    22    86    1
   107    22    87    1
   108    27    45    1
   109    28    34    1
   110    32    58    1
   111    33    46    2
   112    36    51    1
   113    36    66    1
   114    37    52    1
   115    37    67    1
   116    38    53    1
   117    38    68    1
   118    42    48    1
   119    42    72    1
   120    43    44    2
   121    60    73    1
   122    61    74    1
   123    39    69    1
   124    39    57    1
   125    40    70    1
   126    40    50    1
   127    41    71    1
   128    41    49    1
