@<TRIPOS>MOLECULE
*****
 123 128 0 0 0
SMALL
GASTEIGER

@<TRIPOS>ATOM
     1 C         4.356725   0.42234   -2.159582 C.3        1 UNL1     0.0009
     2 C         5.504589   -0.552399   -3.240937 C.2        1 UNL1     -0.0787
     3 C         6.518444   -1.574017   -3.397273 C.2        1 UNL1     -0.0649
     4 C         7.182922   -2.169021   -4.8363 C.2        1 UNL1     -0.0542
     5 C         7.883278   -3.245976   -5.433584 C.2        1 UNL1     0.0115
     6 C         8.665462   -4.554953   -5.136786 C.3        1 UNL1     -0.0348
     7 C         7.860157   -3.396671   -7.031629 C.2        1 UNL1     0.2441
     8 O         8.797479   -3.06603   -7.744812 O.2        1 UNL1     -0.2702
     9 N         6.801171   -4.172233   -7.534821 N.am        1 UNL1     -0.2772
     10 C         5.693483   -3.386519   -7.756188 C.2        1 UNL1     0.1049
     11 C         4.931107   -3.145842   -6.70496 C.2        1 UNL1     0.0801
     12 C         4.96065   -1.247251   -8.825685 C.ar        1 UNL1     0.0753
     13 C         4.320578   -0.936893   -7.583673 C.ar        1 UNL1     0.0305
     14 C         4.174868   -1.935909   -6.527364 C.2        1 UNL1     0.0924
     15 N         4.937033   -3.711772   -5.485855 N.pl3        1 UNL1     -0.3170
     16 C         3.795275   -3.214647   -4.765085 C.3        1 UNL1     0.1275
     17 N         3.531365   -1.855683   -5.366161 N.2        1 UNL1     -0.2557
     18 C         2.603467   -4.086287   -5.149193 C.3        1 UNL1     0.0016
     19 C         2.94788   -5.537784   -4.855723 C.3        1 UNL1     0.0026
     20 N         3.256994   -5.667863   -3.438487 N.3        1 UNL1     -0.3018
     21 C         4.351473   -4.820486   -2.960538 C.3        1 UNL1     0.0026
     22 C         3.98234   -3.366806   -3.261289 C.3        1 UNL1     0.0016
     23 C         3.305331   -7.047218   -2.996123 C.3        1 UNL1     0.0012
     24 C         2.134334   -7.845025   -3.591125 C.3        1 UNL1     -0.0339
     25 C         2.624658   -8.892006   -4.604766 C.3        1 UNL1     -0.0615
     26 C         1.319935   -8.482412   -2.478798 C.3        1 UNL1     -0.0615
     27 C         4.989023   -0.328657   -9.872345 C.ar        1 UNL1     0.1347
     28 C         4.379661   0.911799   -9.809126 C.ar        1 UNL1     0.0342
     29 C         3.797931   1.214585   -8.559696 C.ar        1 UNL1     0.1435
     30 C         3.793306   0.318393   -7.490099 C.ar        1 UNL1     0.0774
     31 O         3.07097   2.338079   -8.374505 O.3        1 UNL1     -0.4436
     32 C         2.282912   2.071389   -7.204584 C.3        1 UNL1     0.3143
     33 C         3.039431   0.993732   -6.454553 C.2        1 UNL1     0.2504
     34 C         4.152181   1.842461   -10.967668 C.3        1 UNL1     -0.0327
     35 O         2.317814   3.249591   -6.389799 O.2        1 UNL1     -0.4528
     36 C         -0.980255   3.314223   -4.511861 C.3        1 UNL1     0.0854
     37 C         -1.602076   2.227543   -3.552701 C.3        1 UNL1     0.0236
     38 C         -1.994407   2.760462   -2.091942 C.3        1 UNL1     0.1131
     39 C         -0.934355   3.568459   -1.240062 C.3        1 UNL1     0.0200
     40 C         0.652458   3.059937   -1.163462 C.3        1 UNL1     0.0661
     41 C         1.175334   1.485417   -0.809769 C.3        1 UNL1     0.0091
     42 C         2.646906   0.560267   -1.396264 C.3        1 UNL1     0.0661
     43 C         5.515574   -2.613236   -8.994224 C.2        1 UNL1     0.2131
     44 O         5.720825   -3.127234   -10.078851 O.2        1 UNL1     -0.2851
     45 O         5.67203   -0.691994   -11.031192 O.3        1 UNL1     -0.5056
     46 O         3.037583   0.759616   -5.266681 O.2        1 UNL1     -0.2836
     47 C         5.149468   1.483786   -1.35034 C.3        1 UNL1     -0.0566
     48 O         3.032183   0.090455   -0.043506 O.3        1 UNL1     -0.3909
     49 C         -0.005279   0.545308   -0.908973 C.3        1 UNL1     -0.0577
     50 O         1.400111   3.586707   -2.241075 O.3        1 UNL1     -0.3910
     51 O         -0.685776   4.560381   -3.922111 O.3        1 UNL1     -0.3753
     52 C         -0.964629   0.817914   -3.779767 C.3        1 UNL1     -0.0564
     53 O         -2.889527   1.825777   -1.332042 O.3        1 UNL1     -0.4608
     54 C         -3.045455   1.805179   0.029278 C.2        1 UNL1     0.3042
     55 O         -2.901693   2.743721   0.81178 O.2        1 UNL1     -0.2512
     56 C         -3.496524   0.475324   0.562886 C.3        1 UNL1     0.0332
     57 C         -1.207061   5.125752   -1.482234 C.3        1 UNL1     -0.0567
     58 C         0.942594   1.483965   -7.704594 C.3        1 UNL1     0.0210
     59 C         -0.044711   5.496458   -4.787363 C.3        1 UNL1     0.0372
     60 C         0.244505   2.883657   -5.239691 C.2        1 UNL1     -0.0208
     61 C         1.397359   3.522012   -5.445057 C.2        1 UNL1     0.0882
     62 H         3.976515   0.930491   -3.053973 H        1 UNL1     0.0365
     63 H         5.332698   -0.071332   -4.206078 H        1 UNL1     0.0576
     64 H         6.841555   -2.193087   -2.557357 H        1 UNL1     0.0615
     65 H         6.867479   -1.441708   -5.58929 H        1 UNL1     0.0622
     66 H         -1.747865   3.474254   -5.282062 H        1 UNL1     0.0645
     67 H         -2.596561   2.024475   -3.986662 H        1 UNL1     0.0362
     68 H         -2.768733   3.493391   -2.365361 H        1 UNL1     0.0741
     69 H         -1.238336   3.554072   -0.201893 H        1 UNL1     0.0359
     70 H         0.994713   3.635215   -0.281999 H        1 UNL1     0.0600
     71 H         1.298064   1.564583   0.288241 H        1 UNL1     0.0348
     72 H         2.865911   1.623055   -1.574682 H        1 UNL1     0.0602
     73 H         0.051987   1.963776   -5.733659 H        1 UNL1     0.0628
     74 H         1.694845   4.437799   -4.933127 H        1 UNL1     0.1022
     75 H         8.144837   -5.153003   -4.350452 H        1 UNL1     0.0279
     76 H         8.748955   -5.266403   -5.955283 H        1 UNL1     0.0279
     77 H         9.638838   -4.369758   -4.659354 H        1 UNL1     0.0279
     78 H         6.542191   -4.881477   -6.852194 H        1 UNL1     0.1553
     79 H         5.363066   -4.597869   -5.285204 H        1 UNL1     0.1484
     80 H         1.724171   -3.760415   -4.580499 H        1 UNL1     0.0317
     81 H         2.3545   -3.96385   -6.208757 H        1 UNL1     0.0317
     82 H         3.783619   -5.891594   -5.477231 H        1 UNL1     0.0428
     83 H         2.085277   -6.141902   -5.138579 H        1 UNL1     0.0428
     84 H         4.510541   -4.877824   -1.879233 H        1 UNL1     0.0428
     85 H         5.317839   -5.12076   -3.388661 H        1 UNL1     0.0428
     86 H         4.737208   -2.771316   -2.782171 H        1 UNL1     0.0317
     87 H         3.065466   -3.09427   -2.724483 H        1 UNL1     0.0317
     88 H         4.245468   -7.487639   -3.353148 H        1 UNL1     0.0429
     89 H         3.314248   -7.114567   -1.900605 H        1 UNL1     0.0429
     90 H         1.45327   -7.155179   -4.103451 H        1 UNL1     0.0308
     91 H         3.663181   -9.176935   -4.411402 H        1 UNL1     0.0233
     92 H         1.995874   -9.784871   -4.572644 H        1 UNL1     0.0233
     93 H         2.582416   -8.525246   -5.6375 H        1 UNL1     0.0233
     94 H         0.734141   -9.320273   -2.87208 H        1 UNL1     0.0233
     95 H         1.986189   -8.871335   -1.703681 H        1 UNL1     0.0233
     96 H         0.632522   -7.763035   -2.025004 H        1 UNL1     0.0233
     97 H         3.968566   1.304178   -11.892745 H        1 UNL1     0.0280
     98 H         3.275969   2.48617   -10.815531 H        1 UNL1     0.0280
     99 H         5.04048   2.479655   -11.109109 H        1 UNL1     0.0280
     100 H         5.979602   0.032063   -11.547682 H        1 UNL1     0.2922
     101 H         4.987275   2.471408   -1.781563 H        1 UNL1     0.0236
     102 H         6.208867   1.247624   -1.256082 H        1 UNL1     0.0236
     103 H         4.787044   1.568714   -0.312251 H        1 UNL1     0.0236
     104 H         3.622121   0.765095   0.346115 H        1 UNL1     0.2098
     105 H         -0.968751   1.041667   -0.993599 H        1 UNL1     0.0234
     106 H         0.090279   -0.22674   -1.672346 H        1 UNL1     0.0234
     107 H         0.0   -0.0   0.0 H        1 UNL1     0.0234
     108 H         0.980343   3.274124   -3.065608 H        1 UNL1     0.2098
     109 H         0.120793   0.819632   -3.607811 H        1 UNL1     0.0234
     110 H         -1.430222   0.032491   -3.174725 H        1 UNL1     0.0234
     111 H         -1.101242   0.473728   -4.813604 H        1 UNL1     0.0234
     112 H         -3.621433   0.532876   1.648441 H        1 UNL1     0.0342
     113 H         -4.410541   0.129843   0.0822 H        1 UNL1     0.0342
     114 H         -2.710469   -0.263077   0.353012 H        1 UNL1     0.0342
     115 H         -2.257504   5.389918   -1.297913 H        1 UNL1     0.0234
     116 H         -0.590101   5.785173   -0.868578 H        1 UNL1     0.0234
     117 H         -1.091487   5.434001   -2.535593 H        1 UNL1     0.0234
     118 H         0.306472   2.249982   -8.18164 H        1 UNL1     0.0309
     119 H         1.072371   0.645108   -8.395737 H        1 UNL1     0.0309
     120 H         0.31683   1.109353   -6.887164 H        1 UNL1     0.0309
     121 H         -0.092295   6.47414   -4.308583 H        1 UNL1     0.0524
     122 H         1.019655   5.256876   -4.947873 H        1 UNL1     0.0524
     123 H         -0.54859   5.525253   -5.749325 H        1 UNL1     0.0524
@<TRIPOS>BOND
     1     1     2    1
     2     1    42    1
     3     2     3    2
     4     3     4    1
     5     4     5    2
     6     5     7    1
     7     6    75    1
     8     6    76    1
     9     6    77    1
    10     7     9   am
    11     9    10    1
    12    10    11    2
    13    10    43    1
    14    11    14    1
    15    11    15    1
    16    12    13   ar
    17    12    27   ar
    18    12    43    1
    19    13    14    1
    20    13    30   ar
    21    14    17    2
    22    15    16    1
    23    16    17    1
    24    16    18    1
    25    16    22    1
    26    18    19    1
    27    19    20    1
    28    20    21    1
    29    21    22    1
    30    23    24    1
    31    23    88    1
    32    23    89    1
    33    24    25    1
    34    24    26    1
    35    24    90    1
    36    25    91    1
    37    25    92    1
    38    25    93    1
    39    26    94    1
    40    26    95    1
    41    26    96    1
    42    27    28   ar
    43    28    29   ar
    44    29    30   ar
    45    29    31    1
    46    30    33    1
    47    31    32    1
    48    32    33    1
    49    32    35    1
    50    34    97    1
    51    34    98    1
    52    34    99    1
    53    35    61    1
    54    36    37    1
    55    36    60    1
    56    37    38    1
    57    38    39    1
    58    39    40    1
    59    40    41    1
    60    41    42    1
    61    45   100    1
    62    47   101    1
    63    47   102    1
    64    47   103    1
    65    48   104    1
    66    49   105    1
    67    49   106    1
    68    49   107    1
    69    50   108    1
    70    51    59    1
    71    52   109    1
    72    52   110    1
    73    52   111    1
    74    53    54    1
    75    54    55    2
    76    54    56    1
    77    56   112    1
    78    56   113    1
    79    56   114    1
    80    57   115    1
    81    57   116    1
    82    57   117    1
    83    58   118    1
    84    58   119    1
    85    58   120    1
    86    59   121    1
    87    59   122    1
    88    59   123    1
    89    60    61    2
    90     1    47    1
    91     1    62    1
    92     2    63    1
    93     3    64    1
    94     4    65    1
    95     5     6    1
    96     7     8    2
    97     9    78    1
    98    15    79    1
    99    18    80    1
   100    18    81    1
   101    19    82    1
   102    19    83    1
   103    20    23    1
   104    21    84    1
   105    21    85    1
   106    22    86    1
   107    22    87    1
   108    27    45    1
   109    28    34    1
   110    32    58    1
   111    33    46    2
   112    36    51    1
   113    36    66    1
   114    37    52    1
   115    37    67    1
   116    38    53    1
   117    38    68    1
   118    42    48    1
   119    42    72    1
   120    43    44    2
   121    60    73    1
   122    61    74    1
   123    39    69    1
   124    39    57    1
   125    40    70    1
   126    40    50    1
   127    41    71    1
   128    41    49    1
