@<TRIPOS>MOLECULE
*****
 123 128 0 0 0
SMALL
GASTEIGER

@<TRIPOS>ATOM
     1 C         4.981983   2.087403   0.906567 C.3        1 UNL1     0.0009
     2 C         6.412299   3.019291   0.183507 C.2        1 UNL1     -0.0787
     3 C         7.740785   3.032694   -0.391811 C.2        1 UNL1     -0.0649
     4 C         8.577289   4.350224   -1.048113 C.2        1 UNL1     -0.0542
     5 C         9.635979   4.744058   -1.903185 C.2        1 UNL1     0.0115
     6 C         10.863209   4.227664   -2.703539 C.3        1 UNL1     -0.0348
     7 C         9.666155   6.249565   -2.459536 C.2        1 UNL1     0.2441
     8 O         10.400874   7.113705   -2.001304 O.2        1 UNL1     -0.2702
     9 N         8.985563   6.442291   -3.674362 N.am        1 UNL1     -0.2772
     10 C         7.659806   6.728086   -3.441955 C.2        1 UNL1     0.1049
     11 C         6.867854   5.690994   -3.238298 C.2        1 UNL1     0.0801
     12 C         6.155149   8.192912   -2.082682 C.ar        1 UNL1     0.0753
     13 C         5.450003   7.000692   -1.722143 C.ar        1 UNL1     0.0305
     14 C         5.704656   5.728332   -2.393933 C.2        1 UNL1     0.0924
     15 N         7.096291   4.379768   -3.425463 N.pl3        1 UNL1     -0.3170
     16 C         5.854103   3.68353   -3.219366 C.3        1 UNL1     0.1275
     17 N         5.084656   4.559228   -2.260812 N.2        1 UNL1     -0.2557
     18 C         5.088432   3.724717   -4.538364 C.3        1 UNL1     0.0016
     19 C         5.966556   3.132518   -5.629138 C.3        1 UNL1     0.0026
     20 N         6.307713   1.764604   -5.263832 N.3        1 UNL1     -0.3018
     21 C         6.993295   1.616962   -3.978317 C.3        1 UNL1     0.0026
     22 C         6.091489   2.214159   -2.896652 C.3        1 UNL1     0.0016
     23 C         6.885428   1.015112   -6.361625 C.3        1 UNL1     0.0012
     24 C         5.821398   0.718291   -7.430032 C.3        1 UNL1     -0.0339
     25 C         5.855142   1.75872   -8.56159 C.3        1 UNL1     -0.0615
     26 C         5.997917   -0.692999   -7.962839 C.3        1 UNL1     -0.0615
     27 C         5.82323   9.424759   -1.523662 C.ar        1 UNL1     0.1347
     28 C         4.783351   9.594989   -0.627156 C.ar        1 UNL1     0.0342
     29 C         4.134991   8.399833   -0.249801 C.ar        1 UNL1     0.1435
     30 C         4.48029   7.153597   -0.774096 C.ar        1 UNL1     0.0774
     31 O         3.032137   8.412354   0.530304 O.3        1 UNL1     -0.4436
     32 C         2.412398   7.137612   0.302644 C.3        1 UNL1     0.3143
     33 C         3.528696   6.235632   -0.183694 C.2        1 UNL1     0.2504
     34 C         4.210216   10.911345   -0.181261 C.3        1 UNL1     -0.0327
     35 O         1.994118   6.633637   1.577126 O.2        1 UNL1     -0.4528
     36 C         -1.066666   4.49433   0.89664 C.3        1 UNL1     0.0854
     37 C         -1.218014   3.245844   -0.055147 C.3        1 UNL1     0.0236
     38 C         -1.779368   1.920702   0.652401 C.3        1 UNL1     0.1131
     39 C         -1.10886   1.398963   1.986747 C.3        1 UNL1     0.0200
     40 C         0.551688   1.36824   2.141904 C.3        1 UNL1     0.0661
     41 C         1.642134   0.707121   1.023218 C.3        1 UNL1     0.0091
     42 C         3.3541   1.206193   0.592518 C.3        1 UNL1     0.0661
     43 C         7.192712   8.08902   -3.138584 C.2        1 UNL1     0.2131
     44 O         7.575672   9.036001   -3.801385 O.2        1 UNL1     -0.2851
     45 O         6.588744   10.528513   -1.894003 O.3        1 UNL1     -0.5056
     46 O         3.622023   5.032478   -0.085898 O.2        1 UNL1     -0.2836
     47 C         5.308012   1.639359   2.35672 C.3        1 UNL1     -0.0566
     48 O         3.896139   -0.172157   0.666424 O.3        1 UNL1     -0.3909
     49 C         0.914332   0.458018   -0.278991 C.3        1 UNL1     -0.0577
     50 O         1.03434   2.611335   2.610396 O.3        1 UNL1     -0.3910
     51 O         -1.272495   4.250658   2.269844 O.3        1 UNL1     -0.3753
     52 C         -0.087724   3.196656   -1.134487 C.3        1 UNL1     -0.0564
     53 O         -2.242286   0.872516   -0.316795 O.3        1 UNL1     -0.4608
     54 C         -2.392129   -0.4602   -0.035113 C.2        1 UNL1     0.3042
     55 O         -1.720137   -1.395323   -0.468484 O.2        1 UNL1     -0.2512
     56 C         -3.478249   -0.745575   0.962693 C.3        1 UNL1     0.0332
     57 C         -1.96135   1.97411   3.211753 C.3        1 UNL1     -0.0567
     58 C         1.399729   7.342832   -0.847971 C.3        1 UNL1     0.0210
     59 C         -1.749921   5.37153   3.012527 C.3        1 UNL1     0.0372
     60 C         0.226452   5.221749   0.778878 C.2        1 UNL1     -0.0208
     61 C         1.043623   5.690609   1.722884 C.2        1 UNL1     0.0882
     62 H         4.431728   3.032607   0.987303 H        1 UNL1     0.0365
     63 H         6.06443   4.04793   0.299094 H        1 UNL1     0.0576
     64 H         8.280849   2.107901   -0.606749 H        1 UNL1     0.0615
     65 H         8.002963   5.217516   -0.711309 H        1 UNL1     0.0622
     66 H         -1.839831   5.196989   0.555271 H        1 UNL1     0.0645
     67 H         -2.059313   3.51415   -0.717556 H        1 UNL1     0.0362
     68 H         -2.777368   2.278686   0.947977 H        1 UNL1     0.0741
     69 H         -1.379599   0.361329   2.129658 H        1 UNL1     0.0359
     70 H         0.64955   0.68859   3.009981 H        1 UNL1     0.0600
     71 H         1.729389   -0.322055   1.423395 H        1 UNL1     0.0348
     72 H         3.146111   1.653247   1.575472 H        1 UNL1     0.0602
     73 H         0.401092   5.460823   -0.240726 H        1 UNL1     0.0628
     74 H         0.967502   5.444055   2.782438 H        1 UNL1     0.1022
     75 H         10.976292   3.123725   -2.578776 H        1 UNL1     0.0279
     76 H         10.818588   4.337872   -3.78471 H        1 UNL1     0.0279
     77 H         11.818878   4.590713   -2.297838 H        1 UNL1     0.0279
     78 H         9.022544   5.587924   -4.226419 H        1 UNL1     0.1553
     79 H         7.831575   4.01977   -4.005715 H        1 UNL1     0.1484
     80 H         4.153795   3.161864   -4.426935 H        1 UNL1     0.0317
     81 H         4.807187   4.751537   -4.795645 H        1 UNL1     0.0317
     82 H         6.871542   3.735262   -5.795308 H        1 UNL1     0.0428
     83 H         5.402056   3.173358   -6.561191 H        1 UNL1     0.0428
     84 H         7.166593   0.575298   -3.690715 H        1 UNL1     0.0428
     85 H         7.998998   2.059094   -3.998242 H        1 UNL1     0.0428
     86 H         6.560694   1.970566   -1.961506 H        1 UNL1     0.0317
     87 H         5.142586   1.665576   -2.854985 H        1 UNL1     0.0317
     88 H         7.674994   1.628154   -6.815563 H        1 UNL1     0.0429
     89 H         7.359591   0.090717   -6.007451 H        1 UNL1     0.0429
     90 H         4.828924   0.740748   -6.964515 H        1 UNL1     0.0308
     91 H         6.840901   1.800159   -9.034521 H        1 UNL1     0.0233
     92 H         5.102906   1.52922   -9.31993 H        1 UNL1     0.0233
     93 H         5.630664   2.771213   -8.204795 H        1 UNL1     0.0233
     94 H         5.372037   -0.843141   -8.849162 H        1 UNL1     0.0233
     95 H         7.039471   -0.854789   -8.254303 H        1 UNL1     0.0233
     96 H         5.720916   -1.439942   -7.21363 H        1 UNL1     0.0233
     97 H         3.373366   10.782036   0.498586 H        1 UNL1     0.0280
     98 H         4.945658   11.520858   0.359919 H        1 UNL1     0.0280
     99 H         3.857852   11.476856   -1.059402 H        1 UNL1     0.0280
     100 H         6.092381   11.254992   -2.227881 H        1 UNL1     0.2922
     101 H         4.445789   1.130233   2.786858 H        1 UNL1     0.0236
     102 H         5.658783   2.45462   2.988617 H        1 UNL1     0.0236
     103 H         6.118225   0.891806   2.386934 H        1 UNL1     0.0236
     104 H         4.262386   -0.297352   1.563732 H        1 UNL1     0.2098
     105 H         0.677732   1.358268   -0.84058 H        1 UNL1     0.0234
     106 H         1.383732   -0.280281   -0.928994 H        1 UNL1     0.0234
     107 H         0.0   -0.0   0.0 H        1 UNL1     0.0234
     108 H         0.83734   3.276669   1.923162 H        1 UNL1     0.2098
     109 H         0.913945   3.142385   -0.685682 H        1 UNL1     0.0234
     110 H         -0.21275   2.378229   -1.851627 H        1 UNL1     0.0234
     111 H         -0.085016   4.099848   -1.759132 H        1 UNL1     0.0234
     112 H         -3.539505   -1.822194   1.148396 H        1 UNL1     0.0342
     113 H         -3.335224   -0.196313   1.892047 H        1 UNL1     0.0342
     114 H         -4.435274   -0.423539   0.529612 H        1 UNL1     0.0342
     115 H         -3.010455   1.650789   3.166705 H        1 UNL1     0.0234
     116 H         -1.573242   1.693904   4.193031 H        1 UNL1     0.0234
     117 H         -2.075537   3.071602   3.191385 H        1 UNL1     0.0234
     118 H         0.439728   7.751907   -0.487332 H        1 UNL1     0.0309
     119 H         1.783397   7.98271   -1.648945 H        1 UNL1     0.0309
     120 H         1.10933   6.400586   -1.325409 H        1 UNL1     0.0309
     121 H         -0.992204   6.152457   2.954428 H        1 UNL1     0.0524
     122 H         -2.683685   5.783247   2.594661 H        1 UNL1     0.0524
     123 H         -1.920579   5.091139   4.04807 H        1 UNL1     0.0524
@<TRIPOS>BOND
     1     1     2    1
     2     1    42    1
     3     2     3    2
     4     3     4    1
     5     4     5    2
     6     5     7    1
     7     6    75    1
     8     6    76    1
     9     6    77    1
    10     7     9   am
    11     9    10    1
    12    10    11    2
    13    10    43    1
    14    11    14    1
    15    11    15    1
    16    12    13   ar
    17    12    27   ar
    18    12    43    1
    19    13    14    1
    20    13    30   ar
    21    14    17    2
    22    15    16    1
    23    16    17    1
    24    16    18    1
    25    16    22    1
    26    18    19    1
    27    19    20    1
    28    20    21    1
    29    21    22    1
    30    23    24    1
    31    23    88    1
    32    23    89    1
    33    24    25    1
    34    24    26    1
    35    24    90    1
    36    25    91    1
    37    25    92    1
    38    25    93    1
    39    26    94    1
    40    26    95    1
    41    26    96    1
    42    27    28   ar
    43    28    29   ar
    44    29    30   ar
    45    29    31    1
    46    30    33    1
    47    31    32    1
    48    32    33    1
    49    32    35    1
    50    34    97    1
    51    34    98    1
    52    34    99    1
    53    35    61    1
    54    36    37    1
    55    36    60    1
    56    37    38    1
    57    38    39    1
    58    39    40    1
    59    40    41    1
    60    41    42    1
    61    45   100    1
    62    47   101    1
    63    47   102    1
    64    47   103    1
    65    48   104    1
    66    49   105    1
    67    49   106    1
    68    49   107    1
    69    50   108    1
    70    51    59    1
    71    52   109    1
    72    52   110    1
    73    52   111    1
    74    53    54    1
    75    54    55    2
    76    54    56    1
    77    56   112    1
    78    56   113    1
    79    56   114    1
    80    57   115    1
    81    57   116    1
    82    57   117    1
    83    58   118    1
    84    58   119    1
    85    58   120    1
    86    59   121    1
    87    59   122    1
    88    59   123    1
    89    60    61    2
    90     1    47    1
    91     1    62    1
    92     2    63    1
    93     3    64    1
    94     4    65    1
    95     5     6    1
    96     7     8    2
    97     9    78    1
    98    15    79    1
    99    18    80    1
   100    18    81    1
   101    19    82    1
   102    19    83    1
   103    20    23    1
   104    21    84    1
   105    21    85    1
   106    22    86    1
   107    22    87    1
   108    27    45    1
   109    28    34    1
   110    32    58    1
   111    33    46    2
   112    36    51    1
   113    36    66    1
   114    37    52    1
   115    37    67    1
   116    38    53    1
   117    38    68    1
   118    42    48    1
   119    42    72    1
   120    43    44    2
   121    60    73    1
   122    61    74    1
   123    39    69    1
   124    39    57    1
   125    40    70    1
   126    40    50    1
   127    41    71    1
   128    41    49    1
