@<TRIPOS>MOLECULE
*****
 123 128 0 0 0
SMALL
GASTEIGER

@<TRIPOS>ATOM
     1 C         5.168649   1.741989   0.499811 C.3        1 UNL1     0.0009
     2 C         6.607803   2.546187   -0.34821 C.2        1 UNL1     -0.0787
     3 C         7.89065   2.446298   -1.011814 C.2        1 UNL1     -0.0649
     4 C         8.770974   3.68025   -1.765969 C.2        1 UNL1     -0.0542
     5 C         9.792936   3.971532   -2.702893 C.2        1 UNL1     0.0115
     6 C         10.92174   3.344584   -3.566642 C.3        1 UNL1     -0.0348
     7 C         9.891233   5.454649   -3.309267 C.2        1 UNL1     0.2441
     8 O         10.715573   6.275218   -2.930245 O.2        1 UNL1     -0.2702
     9 N         9.143223   5.662582   -4.481186 N.am        1 UNL1     -0.2772
     10 C         7.860501   6.050959   -4.16956 C.2        1 UNL1     0.1049
     11 C         7.012954   5.080668   -3.879009 C.2        1 UNL1     0.0801
     12 C         6.561896   7.659349   -2.761 C.ar        1 UNL1     0.0753
     13 C         5.800613   6.532444   -2.314747 C.ar        1 UNL1     0.0305
     14 C         5.916891   5.226578   -2.959916 C.2        1 UNL1     0.0924
     15 N         7.134085   3.751526   -4.03787 N.pl3        1 UNL1     -0.3170
     16 C         5.862919   3.154037   -3.725784 C.3        1 UNL1     0.1275
     17 N         5.226159   4.11013   -2.746935 N.2        1 UNL1     -0.2557
     18 C         5.012241   3.214206   -4.990865 C.3        1 UNL1     0.0016
     19 C         5.768085   2.529096   -6.118213 C.3        1 UNL1     0.0026
     20 N         6.035771   1.150648   -5.731882 N.3        1 UNL1     -0.3018
     21 C         6.796865   0.989273   -4.491293 C.3        1 UNL1     0.0026
     22 C         6.017178   1.680842   -3.371599 C.3        1 UNL1     0.0016
     23 C         6.481032   0.330502   -6.840822 C.3        1 UNL1     0.0012
     24 C         5.326885   0.082529   -7.824799 C.3        1 UNL1     -0.0339
     25 C         5.355688   1.085648   -8.989693 C.3        1 UNL1     -0.0615
     26 C         5.365209   -1.352239   -8.321541 C.3        1 UNL1     -0.0615
     27 C         6.358015   8.927323   -2.221748 C.ar        1 UNL1     0.1347
     28 C         5.397728   9.198156   -1.26334 C.ar        1 UNL1     0.0342
     29 C         4.693911   8.064642   -0.804045 C.ar        1 UNL1     0.1435
     30 C         4.912498   6.782316   -1.309098 C.ar        1 UNL1     0.0774
     31 O         3.651661   8.179601   0.047722 O.3        1 UNL1     -0.4436
     32 C         2.928595   6.94773   -0.095603 C.3        1 UNL1     0.3143
     33 C         3.941459   5.953277   -0.626058 C.2        1 UNL1     0.2504
     34 C         4.951964   10.564859   -0.823432 C.3        1 UNL1     -0.0327
     35 O         2.565212   6.511539   1.220049 O.2        1 UNL1     -0.4528
     36 C         -0.679721   4.58362   0.818015 C.3        1 UNL1     0.0854
     37 C         -0.985209   3.323416   -0.079807 C.3        1 UNL1     0.0236
     38 C         -1.588724   2.063186   0.707171 C.3        1 UNL1     0.1131
     39 C         -0.865811   1.531331   2.009783 C.3        1 UNL1     0.0200
     40 C         0.795117   1.383597   2.053689 C.3        1 UNL1     0.0661
     41 C         1.755395   0.613469   0.886479 C.3        1 UNL1     0.0091
     42 C         3.464385   0.973757   0.325276 C.3        1 UNL1     0.0661
     43 C         7.513507   7.450362   -3.880384 C.2        1 UNL1     0.2131
     44 O         7.915757   8.34789   -4.598281 O.2        1 UNL1     -0.2851
     45 O         7.1724   9.961345   -2.67893 O.3        1 UNL1     -0.5056
     46 O         3.955645   4.749727   -0.49522 O.2        1 UNL1     -0.2836
     47 C         5.562079   1.312035   1.938677 C.3        1 UNL1     -0.0566
     48 O         3.910951   -0.437936   0.407842 O.3        1 UNL1     -0.3909
     49 C         0.922941   0.381939   -0.354855 C.3        1 UNL1     -0.0577
     50 O         1.396276   2.600679   2.447443 O.3        1 UNL1     -0.3910
     51 O         -0.806346   4.394156   2.209238 O.3        1 UNL1     -0.3753
     52 C         0.060926   3.161527   -1.230608 C.3        1 UNL1     -0.0564
     53 O         -2.191219   1.024968   -0.193623 O.3        1 UNL1     -0.4608
     54 C         -2.415806   -0.284716   0.141367 C.2        1 UNL1     0.3042
     55 O         -1.844213   -1.278474   -0.305361 O.2        1 UNL1     -0.2512
     56 C         -3.447188   -0.461428   1.219205 C.3        1 UNL1     0.0332
     57 C         -1.588026   2.201321   3.26982 C.3        1 UNL1     -0.0567
     58 C         1.855506   7.194202   -1.181542 C.3        1 UNL1     0.0210
     59 C         -1.150125   5.567275   2.945087 C.3        1 UNL1     0.0372
     60 C         0.650482   5.21094   0.589559 C.2        1 UNL1     -0.0208
     61 C         1.562563   5.644998   1.460447 C.2        1 UNL1     0.0882
     62 H         4.693887   2.726793   0.586263 H        1 UNL1     0.0365
     63 H         6.342776   3.600341   -0.24338 H        1 UNL1     0.0576
     64 H         8.347388   1.478836   -1.232076 H        1 UNL1     0.0615
     65 H         8.284534   4.596303   -1.419984 H        1 UNL1     0.0622
     66 H         -1.422874   5.33112   0.506544 H        1 UNL1     0.0645
     67 H         -1.849345   3.633901   -0.69253 H        1 UNL1     0.0362
     68 H         -2.535791   2.501328   1.05734 H        1 UNL1     0.0741
     69 H         -1.198991   0.52068   2.204679 H        1 UNL1     0.0359
     70 H         0.904576   0.723154   2.935106 H        1 UNL1     0.0600
     71 H         1.796927   -0.407736   1.31353 H        1 UNL1     0.0348
     72 H         3.357544   1.462142   1.304756 H        1 UNL1     0.0602
     73 H         0.770335   5.40799   -0.446807 H        1 UNL1     0.0628
     74 H         1.542988   5.434402   2.530261 H        1 UNL1     0.1022
     75 H         10.964508   2.239254   -3.413509 H        1 UNL1     0.0279
     76 H         10.809982   3.427478   -4.645395 H        1 UNL1     0.0279
     77 H         11.926681   3.647972   -3.23839 H        1 UNL1     0.0279
     78 H         9.08093   4.792694   -5.006059 H        1 UNL1     0.1553
     79 H         7.799798   3.322629   -4.654155 H        1 UNL1     0.1484
     80 H         4.049994   2.724553   -4.798282 H        1 UNL1     0.0317
     81 H         4.787448   4.251246   -5.262281 H        1 UNL1     0.0317
     82 H         6.699854   3.059156   -6.364698 H        1 UNL1     0.0428
     83 H         5.144465   2.585028   -7.010973 H        1 UNL1     0.0428
     84 H         6.915299   -0.053824   -4.181883 H        1 UNL1     0.0428
     85 H         7.827612   1.355938   -4.593441 H        1 UNL1     0.0428
     86 H         6.531784   1.429836   -2.462663 H        1 UNL1     0.0317
     87 H         5.036899   1.204507   -3.248091 H        1 UNL1     0.0317
     88 H         7.278672   0.871221   -7.366832 H        1 UNL1     0.0429
     89 H         6.911801   -0.615827   -6.489148 H        1 UNL1     0.0429
     90 H         4.373297   0.190522   -7.294496 H        1 UNL1     0.0308
     91 H         6.305433   1.039461   -9.530945 H        1 UNL1     0.0233
     92 H         4.53629   0.892601   -9.686061 H        1 UNL1     0.0233
     93 H         5.232153   2.1217   -8.651802 H        1 UNL1     0.0233
     94 H         4.670126   -1.480935   -9.15828 H        1 UNL1     0.0233
     95 H         6.369839   -1.597859   -8.676999 H        1 UNL1     0.0233
     96 H         5.088615   -2.055676   -7.531199 H        1 UNL1     0.0233
     97 H         4.157351   10.516164   -0.084886 H        1 UNL1     0.0280
     98 H         5.764701   11.133849   -0.353363 H        1 UNL1     0.0280
     99 H         4.580454   11.129844   -1.693988 H        1 UNL1     0.0280
     100 H         6.706886   10.712295   -3.002957 H        1 UNL1     0.2922
     101 H         4.697869   0.879561   2.442426 H        1 UNL1     0.0236
     102 H         6.012977   2.116812   2.518339 H        1 UNL1     0.0236
     103 H         6.317267   0.508367   1.93885 H        1 UNL1     0.0236
     104 H         4.32889   -0.564436   1.282082 H        1 UNL1     0.2098
     105 H         0.712419   1.281022   -0.928564 H        1 UNL1     0.0234
     106 H         1.29236   -0.406603   -1.010338 H        1 UNL1     0.0234
     107 H         0.0   -0.0   0.0 H        1 UNL1     0.0234
     108 H         1.197335   3.259893   1.754892 H        1 UNL1     0.2098
     109 H         1.084988   3.046718   -0.848734 H        1 UNL1     0.0234
     110 H         -0.171499   2.3347   -1.910372 H        1 UNL1     0.0234
     111 H         0.084349   4.044279   -1.883408 H        1 UNL1     0.0234
     112 H         -3.574308   -1.525202   1.441853 H        1 UNL1     0.0342
     113 H         -3.199193   0.099205   2.119224 H        1 UNL1     0.0342
     114 H         -4.405976   -0.079261   0.842589 H        1 UNL1     0.0342
     115 H         -2.652624   1.934302   3.320011 H        1 UNL1     0.0234
     116 H         -1.138395   1.940231   4.229879 H        1 UNL1     0.0234
     117 H         -1.646943   3.301692   3.209364 H        1 UNL1     0.0234
     118 H         0.954403   7.682318   -0.770733 H        1 UNL1     0.0309
     119 H         2.227032   7.781653   -2.027161 H        1 UNL1     0.0309
     120 H         1.4664   6.262734   -1.607065 H        1 UNL1     0.0309
     121 H         -0.346205   6.289936   2.807858 H        1 UNL1     0.0524
     122 H         -2.080733   6.03259   2.579727 H        1 UNL1     0.0524
     123 H         -1.26481   5.329784   3.998908 H        1 UNL1     0.0524
@<TRIPOS>BOND
     1     1     2    1
     2     1    42    1
     3     2     3    2
     4     3     4    1
     5     4     5    2
     6     5     7    1
     7     6    75    1
     8     6    76    1
     9     6    77    1
    10     7     9   am
    11     9    10    1
    12    10    11    2
    13    10    43    1
    14    11    14    1
    15    11    15    1
    16    12    13   ar
    17    12    27   ar
    18    12    43    1
    19    13    14    1
    20    13    30   ar
    21    14    17    2
    22    15    16    1
    23    16    17    1
    24    16    18    1
    25    16    22    1
    26    18    19    1
    27    19    20    1
    28    20    21    1
    29    21    22    1
    30    23    24    1
    31    23    88    1
    32    23    89    1
    33    24    25    1
    34    24    26    1
    35    24    90    1
    36    25    91    1
    37    25    92    1
    38    25    93    1
    39    26    94    1
    40    26    95    1
    41    26    96    1
    42    27    28   ar
    43    28    29   ar
    44    29    30   ar
    45    29    31    1
    46    30    33    1
    47    31    32    1
    48    32    33    1
    49    32    35    1
    50    34    97    1
    51    34    98    1
    52    34    99    1
    53    35    61    1
    54    36    37    1
    55    36    60    1
    56    37    38    1
    57    38    39    1
    58    39    40    1
    59    40    41    1
    60    41    42    1
    61    45   100    1
    62    47   101    1
    63    47   102    1
    64    47   103    1
    65    48   104    1
    66    49   105    1
    67    49   106    1
    68    49   107    1
    69    50   108    1
    70    51    59    1
    71    52   109    1
    72    52   110    1
    73    52   111    1
    74    53    54    1
    75    54    55    2
    76    54    56    1
    77    56   112    1
    78    56   113    1
    79    56   114    1
    80    57   115    1
    81    57   116    1
    82    57   117    1
    83    58   118    1
    84    58   119    1
    85    58   120    1
    86    59   121    1
    87    59   122    1
    88    59   123    1
    89    60    61    2
    90     1    47    1
    91     1    62    1
    92     2    63    1
    93     3    64    1
    94     4    65    1
    95     5     6    1
    96     7     8    2
    97     9    78    1
    98    15    79    1
    99    18    80    1
   100    18    81    1
   101    19    82    1
   102    19    83    1
   103    20    23    1
   104    21    84    1
   105    21    85    1
   106    22    86    1
   107    22    87    1
   108    27    45    1
   109    28    34    1
   110    32    58    1
   111    33    46    2
   112    36    51    1
   113    36    66    1
   114    37    52    1
   115    37    67    1
   116    38    53    1
   117    38    68    1
   118    42    48    1
   119    42    72    1
   120    43    44    2
   121    60    73    1
   122    61    74    1
   123    39    69    1
   124    39    57    1
   125    40    70    1
   126    40    50    1
   127    41    71    1
   128    41    49    1
