@<TRIPOS>MOLECULE
*****
 123 128 0 0 0
SMALL
GASTEIGER

@<TRIPOS>ATOM
     1 C         5.160581   1.779461   0.448541 C.3        1 UNL1     0.0009
     2 C         6.591177   2.578467   -0.418651 C.2        1 UNL1     -0.0787
     3 C         7.871585   2.475522   -1.086488 C.2        1 UNL1     -0.0649
     4 C         8.741278   3.702477   -1.86403 C.2        1 UNL1     -0.0542
     5 C         9.75729   3.984828   -2.810114 C.2        1 UNL1     0.0115
     6 C         10.885835   3.350851   -3.669057 C.3        1 UNL1     -0.0348
     7 C         9.844187   5.458733   -3.440227 C.2        1 UNL1     0.2441
     8 O         10.665417   6.289925   -3.077974 O.2        1 UNL1     -0.2702
     9 N         9.089703   5.643823   -4.611827 N.am        1 UNL1     -0.2772
     10 C         7.80615   6.029661   -4.300468 C.2        1 UNL1     0.1049
     11 C         6.965604   5.059201   -3.990771 C.2        1 UNL1     0.0801
     12 C         6.504528   7.652561   -2.911472 C.ar        1 UNL1     0.0753
     13 C         5.75186   6.528465   -2.444024 C.ar        1 UNL1     0.0305
     14 C         5.872858   5.213271   -3.069063 C.2        1 UNL1     0.0924
     15 N         7.093783   3.728439   -4.129226 N.pl3        1 UNL1     -0.3170
     16 C         5.827548   3.128624   -3.801925 C.3        1 UNL1     0.1275
     17 N         5.189628   4.096356   -2.835345 N.2        1 UNL1     -0.2557
     18 C         4.970843   3.163908   -5.063873 C.3        1 UNL1     0.0016
     19 C         5.725592   2.465464   -6.183748 C.3        1 UNL1     0.0026
     20 N         6.003065   1.094852   -5.77698 N.3        1 UNL1     -0.3018
     21 C         6.77067   0.957473   -4.537513 C.3        1 UNL1     0.0026
     22 C         5.992006   1.662117   -3.425283 C.3        1 UNL1     0.0016
     23 C         6.448111   0.25989   -6.874894 C.3        1 UNL1     0.0012
     24 C         5.291012   -0.010239   -7.849527 C.3        1 UNL1     -0.0339
     25 C         5.378465   0.893294   -9.090509 C.3        1 UNL1     -0.0615
     26 C         5.262554   -1.480497   -8.22941 C.3        1 UNL1     -0.0615
     27 C         6.295673   8.92769   -2.391334 C.ar        1 UNL1     0.1347
     28 C         5.338146   9.20807   -1.432909 C.ar        1 UNL1     0.0342
     29 C         4.64304   8.077903   -0.952581 C.ar        1 UNL1     0.1435
     30 C         4.866839   6.789048   -1.438365 C.ar        1 UNL1     0.0774
     31 O         3.603984   8.200273   -0.09795 O.3        1 UNL1     -0.4436
     32 C         2.887489   6.962142   -0.218523 C.3        1 UNL1     0.3143
     33 C         3.903746   5.965302   -0.737892 C.2        1 UNL1     0.2504
     34 C         4.88639   10.57895   -1.012546 C.3        1 UNL1     -0.0327
     35 O         2.532591   6.54468   1.105496 O.2        1 UNL1     -0.4528
     36 C         -0.7028   4.591961   0.748806 C.3        1 UNL1     0.0854
     37 C         -1.004961   3.316001   -0.127634 C.3        1 UNL1     0.0236
     38 C         -1.597551   2.064887   0.681869 C.3        1 UNL1     0.1131
     39 C         -0.865683   1.557839   1.989362 C.3        1 UNL1     0.0200
     40 C         0.796262   1.420404   2.027958 C.3        1 UNL1     0.0661
     41 C         1.755755   0.637504   0.868625 C.3        1 UNL1     0.0091
     42 C         3.460066   0.998747   0.293967 C.3        1 UNL1     0.0661
     43 C         7.452292   7.431427   -4.031785 C.2        1 UNL1     0.2131
     44 O         7.846052   8.31982   -4.765576 O.2        1 UNL1     -0.2851
     45 O         7.101934   9.95905   -2.86849 O.3        1 UNL1     -0.5056
     46 O         3.925554   4.764069   -0.588173 O.2        1 UNL1     -0.2836
     47 C         5.562994   1.374548   1.892179 C.3        1 UNL1     -0.0566
     48 O         3.91524   -0.408866   0.396713 O.3        1 UNL1     -0.3909
     49 C         0.919086   0.381611   -0.365067 C.3        1 UNL1     -0.0577
     50 O         1.392066   2.646998   2.399719 O.3        1 UNL1     -0.3910
     51 O         -0.822048   4.423751   2.143409 O.3        1 UNL1     -0.3753
     52 C         0.036908   3.14201   -1.280537 C.3        1 UNL1     -0.0564
     53 O         -2.19802   1.009121   -0.199676 O.3        1 UNL1     -0.4608
     54 C         -2.394336   -0.301314   0.149824 C.2        1 UNL1     0.3042
     55 O         -1.80825   -1.288287   -0.293149 O.2        1 UNL1     -0.2512
     56 C         -3.411673   -0.487213   1.239402 C.3        1 UNL1     0.0332
     57 C         -1.586117   2.243453   3.241993 C.3        1 UNL1     -0.0567
     58 C         1.808098   7.185246   -1.303266 C.3        1 UNL1     0.0210
     59 C         -1.138454   5.612895   2.865689 C.3        1 UNL1     0.0372
     60 C         0.622672   5.223263   0.504383 C.2        1 UNL1     -0.0208
     61 C         1.536116   5.676269   1.364122 C.2        1 UNL1     0.0882
     62 H         4.680468   2.76275   0.521646 H        1 UNL1     0.0365
     63 H         6.320471   3.632597   -0.329227 H        1 UNL1     0.0576
     64 H         8.332971   1.507356   -1.293575 H        1 UNL1     0.0615
     65 H         8.251056   4.621054   -1.530289 H        1 UNL1     0.0622
     66 H         -1.451703   5.33015   0.429015 H        1 UNL1     0.0645
     67 H         -1.873647   3.611785   -0.741195 H        1 UNL1     0.0362
     68 H         -2.545575   2.503028   1.029439 H        1 UNL1     0.0741
     69 H         -1.19207   0.548484   2.201688 H        1 UNL1     0.0359
     70 H         0.913547   0.774598   2.919159 H        1 UNL1     0.0600
     71 H         1.805178   -0.376576   1.311519 H        1 UNL1     0.0348
     72 H         3.354787   1.501906   1.266111 H        1 UNL1     0.0602
     73 H         0.736703   5.40462   -0.535499 H        1 UNL1     0.0628
     74 H         1.52259   5.482475   2.437201 H        1 UNL1     0.1022
     75 H         10.917092   2.244522   -3.52042 H        1 UNL1     0.0279
     76 H         10.782072   3.439397   -4.748159 H        1 UNL1     0.0279
     77 H         11.891395   3.643263   -3.332836 H        1 UNL1     0.0279
     78 H         9.03013   4.765414   -5.122636 H        1 UNL1     0.1553
     79 H         7.759208   3.293718   -4.741729 H        1 UNL1     0.1484
     80 H         4.012351   2.67181   -4.859179 H        1 UNL1     0.0317
     81 H         4.738775   4.195221   -5.35056 H        1 UNL1     0.0317
     82 H         6.653129   2.996936   -6.442835 H        1 UNL1     0.0428
     83 H         5.097641   2.503698   -7.074403 H        1 UNL1     0.0428
     84 H         6.896589   -0.079909   -4.212254 H        1 UNL1     0.0428
     85 H         7.798786   1.328422   -4.650163 H        1 UNL1     0.0428
     86 H         6.512159   1.428462   -2.51488 H        1 UNL1     0.0317
     87 H         5.015093   1.182142   -3.289781 H        1 UNL1     0.0317
     88 H         7.240201   0.796834   -7.41302 H        1 UNL1     0.0429
     89 H         6.885982   -0.678269   -6.510337 H        1 UNL1     0.0429
     90 H         4.339714   0.186175   -7.340933 H        1 UNL1     0.0308
     91 H         6.332861   0.76452   -9.609785 H        1 UNL1     0.0233
     92 H         4.561425   0.67832   -9.783213 H        1 UNL1     0.0233
     93 H         5.294169   1.957485   -8.839061 H        1 UNL1     0.0233
     94 H         4.584041   -1.639167   -9.074561 H        1 UNL1     0.0233
     95 H         6.261084   -1.807418   -8.532763 H        1 UNL1     0.0233
     96 H         4.926088   -2.101866   -7.394749 H        1 UNL1     0.0233
     97 H         4.089097   10.537331   -0.27646 H        1 UNL1     0.0280
     98 H         5.695515   11.156608   -0.546839 H        1 UNL1     0.0280
     99 H         4.516457   11.131364   -1.891798 H        1 UNL1     0.0280
     100 H         6.630769   10.70721   -3.190796 H        1 UNL1     0.2922
     101 H         4.700421   0.956566   2.410751 H        1 UNL1     0.0236
     102 H         6.022887   2.187568   2.452965 H        1 UNL1     0.0236
     103 H         6.31372   0.566765   1.901684 H        1 UNL1     0.0236
     104 H         4.332478   -0.5207   1.273283 H        1 UNL1     0.2098
     105 H         0.700732   1.270297   -0.951897 H        1 UNL1     0.0234
     106 H         1.290149   -0.415033   -1.009735 H        1 UNL1     0.0234
     107 H         0.0   -0.0   0.0 H        1 UNL1     0.0234
     108 H         1.203573   3.288566   1.68794 H        1 UNL1     0.2098
     109 H         1.064725   3.051543   -0.902225 H        1 UNL1     0.0234
     110 H         -0.187021   2.29576   -1.938915 H        1 UNL1     0.0234
     111 H         0.043448   4.009087   -1.954393 H        1 UNL1     0.0234
     112 H         -3.504805   -1.549618   1.484286 H        1 UNL1     0.0342
     113 H         -3.17395   0.098715   2.125979 H        1 UNL1     0.0342
     114 H         -4.384433   -0.14181   0.863107 H        1 UNL1     0.0342
     115 H         -2.65709   2.001075   3.280171 H        1 UNL1     0.0234
     116 H         -1.153282   1.971365   4.206706 H        1 UNL1     0.0234
     117 H         -1.618924   3.344934   3.181946 H        1 UNL1     0.0234
     118 H         0.904175   7.670352   -0.895098 H        1 UNL1     0.0309
     119 H         2.171074   7.765333   -2.157637 H        1 UNL1     0.0309
     120 H         1.425836   6.245028   -1.715542 H        1 UNL1     0.0309
     121 H         -0.303848   6.30318   2.746125 H        1 UNL1     0.0524
     122 H         -2.04075   6.112129   2.474966 H        1 UNL1     0.0524
     123 H         -1.288865   5.385184   3.917172 H        1 UNL1     0.0524
@<TRIPOS>BOND
     1     1     2    1
     2     1    42    1
     3     2     3    2
     4     3     4    1
     5     4     5    2
     6     5     7    1
     7     6    75    1
     8     6    76    1
     9     6    77    1
    10     7     9   am
    11     9    10    1
    12    10    11    2
    13    10    43    1
    14    11    14    1
    15    11    15    1
    16    12    13   ar
    17    12    27   ar
    18    12    43    1
    19    13    14    1
    20    13    30   ar
    21    14    17    2
    22    15    16    1
    23    16    17    1
    24    16    18    1
    25    16    22    1
    26    18    19    1
    27    19    20    1
    28    20    21    1
    29    21    22    1
    30    23    24    1
    31    23    88    1
    32    23    89    1
    33    24    25    1
    34    24    26    1
    35    24    90    1
    36    25    91    1
    37    25    92    1
    38    25    93    1
    39    26    94    1
    40    26    95    1
    41    26    96    1
    42    27    28   ar
    43    28    29   ar
    44    29    30   ar
    45    29    31    1
    46    30    33    1
    47    31    32    1
    48    32    33    1
    49    32    35    1
    50    34    97    1
    51    34    98    1
    52    34    99    1
    53    35    61    1
    54    36    37    1
    55    36    60    1
    56    37    38    1
    57    38    39    1
    58    39    40    1
    59    40    41    1
    60    41    42    1
    61    45   100    1
    62    47   101    1
    63    47   102    1
    64    47   103    1
    65    48   104    1
    66    49   105    1
    67    49   106    1
    68    49   107    1
    69    50   108    1
    70    51    59    1
    71    52   109    1
    72    52   110    1
    73    52   111    1
    74    53    54    1
    75    54    55    2
    76    54    56    1
    77    56   112    1
    78    56   113    1
    79    56   114    1
    80    57   115    1
    81    57   116    1
    82    57   117    1
    83    58   118    1
    84    58   119    1
    85    58   120    1
    86    59   121    1
    87    59   122    1
    88    59   123    1
    89    60    61    2
    90     1    47    1
    91     1    62    1
    92     2    63    1
    93     3    64    1
    94     4    65    1
    95     5     6    1
    96     7     8    2
    97     9    78    1
    98    15    79    1
    99    18    80    1
   100    18    81    1
   101    19    82    1
   102    19    83    1
   103    20    23    1
   104    21    84    1
   105    21    85    1
   106    22    86    1
   107    22    87    1
   108    27    45    1
   109    28    34    1
   110    32    58    1
   111    33    46    2
   112    36    51    1
   113    36    66    1
   114    37    52    1
   115    37    67    1
   116    38    53    1
   117    38    68    1
   118    42    48    1
   119    42    72    1
   120    43    44    2
   121    60    73    1
   122    61    74    1
   123    39    69    1
   124    39    57    1
   125    40    70    1
   126    40    50    1
   127    41    71    1
   128    41    49    1
