@<TRIPOS>MOLECULE
*****
 123 128 0 0 0
SMALL
GASTEIGER

@<TRIPOS>ATOM
     1 C         -0.558726   3.655088   2.119795 C.3        1 UNL1     0.0009
     2 C         -1.911246   4.200301   3.264552 C.2        1 UNL1     -0.0787
     3 C         -3.214078   4.795213   3.476102 C.2        1 UNL1     -0.0649
     4 C         -4.070293   4.935512   4.929915 C.2        1 UNL1     -0.0542
     5 C         -5.347345   5.132143   5.510907 C.2        1 UNL1     0.0115
     6 C         -6.821405   5.51558   5.205217 C.3        1 UNL1     -0.0348
     7 C         -5.569036   4.738231   7.051256 C.2        1 UNL1     0.2441
     8 O         -5.60072   5.565637   7.951768 O.2        1 UNL1     -0.2702
     9 N         -5.983961   3.412432   7.266304 N.am        1 UNL1     -0.2772
     10 C         -4.893843   2.580526   7.379871 C.2        1 UNL1     0.1049
     11 C         -4.361362   2.160864   6.246482 C.2        1 UNL1     0.0801
     12 C         -2.694086   2.341487   8.546603 C.ar        1 UNL1     0.0753
     13 C         -2.125242   2.095866   7.256373 C.ar        1 UNL1     0.0305
     14 C         -2.96343   1.867735   6.081448 C.2        1 UNL1     0.0924
     15 N         -4.831196   2.240429   4.989719 N.pl3        1 UNL1     -0.3170
     16 C         -3.951157   1.479997   4.142648 C.3        1 UNL1     0.1275
     17 N         -2.615113   1.531448   4.842693 N.2        1 UNL1     -0.2557
     18 C         -4.40708   0.025442   4.206717 C.3        1 UNL1     0.0016
     19 C         -5.87341   -0.0425   3.810675 C.3        1 UNL1     0.0026
     20 N         -6.019674   0.49363   2.464495 N.3        1 UNL1     -0.3018
     21 C         -5.549878   1.869412   2.288757 C.3        1 UNL1     0.0026
     22 C         -4.07384   1.913575   2.687826 C.3        1 UNL1     0.0016
     23 C         -7.313456   0.203229   1.879312 C.3        1 UNL1     0.0012
     24 C         -7.437083   0.857171   0.494093 C.3        1 UNL1     -0.0339
     25 C         -8.878865   1.311641   0.213418 C.3        1 UNL1     -0.0615
     26 C         -6.454258   2.008684   0.372225 C.3        1 UNL1     -0.0615
     27 C         -1.893111   2.437759   9.682072 C.ar        1 UNL1     0.1347
     28 C         -0.520382   2.267182   9.65822 C.ar        1 UNL1     0.0342
     29 C         0.022734   2.074943   8.370107 C.ar        1 UNL1     0.1435
     30 C         -0.763574   2.012325   7.219013 C.ar        1 UNL1     0.0774
     31 O         1.329953   1.783899   8.192687 O.3        1 UNL1     -0.4436
     32 C         1.39829   1.20806   6.879442 C.3        1 UNL1     0.3143
     33 C         0.175612   1.731457   6.153269 C.2        1 UNL1     0.2504
     34 C         0.369153   2.106644   10.859493 C.3        1 UNL1     -0.0327
     35 O         2.543502   1.770152   6.226914 O.2        1 UNL1     -0.4528
     36 C         3.779895   -0.891113   3.8192 C.3        1 UNL1     0.0854
     37 C         3.008591   -1.608459   2.645306 C.3        1 UNL1     0.0236
     38 C         3.718823   -1.510626   1.210822 C.3        1 UNL1     0.1131
     39 C         4.182994   -0.102711   0.658924 C.3        1 UNL1     0.0200
     40 C         3.190763   1.230337   0.803481 C.3        1 UNL1     0.0661
     41 C         1.553503   1.302535   0.365555 C.3        1 UNL1     0.0091
     42 C         0.169389   2.264735   1.089295 C.3        1 UNL1     0.0661
     43 C         -4.173332   2.401279   8.649157 C.2        1 UNL1     0.2131
     44 O         -4.784358   2.212184   9.685317 O.2        1 UNL1     -0.2851
     45 O         -2.521413   2.723889   10.892363 O.3        1 UNL1     -0.5056
     46 O         0.019844   1.899796   4.964466 O.2        1 UNL1     -0.2836
     47 C         0.229365   4.884139   1.592227 C.3        1 UNL1     -0.0566
     48 O         -0.325877   2.753669   -0.220197 O.3        1 UNL1     -0.3909
     49 C         1.044805   -0.104633   0.145101 C.3        1 UNL1     -0.0577
     50 O         3.386114   1.867699   2.049807 O.3        1 UNL1     -0.3910
     51 O         4.892547   -0.112782   3.440204 O.3        1 UNL1     -0.3753
     52 C         1.458108   -1.497396   2.814467 C.3        1 UNL1     -0.0564
     53 O         3.169094   -2.475645   0.201435 O.3        1 UNL1     -0.4608
     54 C         3.901866   -3.131044   -0.753251 C.2        1 UNL1     0.3042
     55 O         4.780386   -2.659934   -1.474428 O.2        1 UNL1     -0.2512
     56 C         3.592992   -4.598233   -0.846346 C.3        1 UNL1     0.0332
     57 C         5.728653   0.074954   1.029796 C.3        1 UNL1     -0.0567
     58 C         1.252688   -0.320434   7.063932 C.3        1 UNL1     0.0210
     59 C         4.954459   1.17845   4.044153 C.3        1 UNL1     0.0372
     60 C         2.935295   -0.034471   4.695543 C.2        1 UNL1     -0.0208
     61 C         3.151594   1.191693   5.173541 C.2        1 UNL1     0.0882
     62 H         -0.003974   3.27618   2.986623 H        1 UNL1     0.0365
     63 H         -1.453698   3.992157   4.233983 H        1 UNL1     0.0576
     64 H         -3.857923   5.075741   2.639516 H        1 UNL1     0.0615
     65 H         -3.322031   4.713231   5.695537 H        1 UNL1     0.0622
     66 H         4.138837   -1.712021   4.455845 H        1 UNL1     0.0645
     67 H         3.116886   -2.683593   2.870958 H        1 UNL1     0.0362
     68 H         4.647803   -2.059707   1.427686 H        1 UNL1     0.0741
     69 H         4.324819   -0.177832   -0.410959 H        1 UNL1     0.0359
     70 H         3.670425   1.905586   0.069299 H        1 UNL1     0.0600
     71 H         1.648048   1.664939   -0.676886 H        1 UNL1     0.0348
     72 H         1.091699   2.759696   1.426452 H        1 UNL1     0.0602
     73 H         2.102685   -0.597876   5.036985 H        1 UNL1     0.0628
     74 H         3.94716   1.855025   4.83251 H        1 UNL1     0.1022
     75 H         -6.926212   5.857522   4.14733 H        1 UNL1     0.0279
     76 H         -7.553836   4.71375   5.265888 H        1 UNL1     0.0279
     77 H         -7.151328   6.408908   5.755505 H        1 UNL1     0.0279
     78 H         -6.532076   3.092239   6.470614 H        1 UNL1     0.1553
     79 H         -5.795393   2.403816   4.76486 H        1 UNL1     0.1484
     80 H         -3.782385   -0.574986   3.534401 H        1 UNL1     0.0317
     81 H         -4.26814   -0.384211   5.212963 H        1 UNL1     0.0317
     82 H         -6.513178   0.498068   4.523694 H        1 UNL1     0.0428
     83 H         -6.178403   -1.088008   3.864914 H        1 UNL1     0.0428
     84 H         -5.596927   2.220058   1.253071 H        1 UNL1     0.0428
     85 H         -6.171092   2.587305   2.841966 H        1 UNL1     0.0428
     86 H         -3.731255   2.896355   2.421805 H        1 UNL1     0.0317
     87 H         -3.489002   1.255274   2.033838 H        1 UNL1     0.0317
     88 H         -7.398257   -0.884928   1.760911 H        1 UNL1     0.0429
     89 H         -8.13032   0.519392   2.540786 H        1 UNL1     0.0429
     90 H         -7.144223   0.13093   -0.273382 H        1 UNL1     0.0308
     91 H         -9.396488   1.585818   1.137537 H        1 UNL1     0.0233
     92 H         -8.889103   2.164086   -0.46984 H        1 UNL1     0.0233
     93 H         -9.477843   0.528073   -0.266251 H        1 UNL1     0.0233
     94 H         -6.993527   2.953972   0.247907 H        1 UNL1     0.0233
     95 H         -5.850239   2.082133   1.280921 H        1 UNL1     0.0233
     96 H         -5.787985   1.875649   -0.484718 H        1 UNL1     0.0233
     97 H         0.756885   1.096104   10.947249 H        1 UNL1     0.0280
     98 H         1.248093   2.762901   10.814244 H        1 UNL1     0.0280
     99 H         -0.200494   2.338848   11.774194 H        1 UNL1     0.0280
     100 H         -2.826584   1.968424   11.363283 H        1 UNL1     0.2922
     101 H         -0.36515   5.408848   0.844638 H        1 UNL1     0.0236
     102 H         1.221599   4.629954   1.220954 H        1 UNL1     0.0236
     103 H         0.408194   5.63192   2.38282 H        1 UNL1     0.0236
     104 H         0.062999   2.18529   -0.913516 H        1 UNL1     0.2098
     105 H         1.454826   -0.598073   -0.732516 H        1 UNL1     0.0234
     106 H         1.119356   -0.757277   1.014828 H        1 UNL1     0.0234
     107 H         -0.0   0.0   0.0 H        1 UNL1     0.0234
     108 H         4.240416   2.338698   2.004026 H        1 UNL1     0.2098
     109 H         0.917841   -2.209435   2.175073 H        1 UNL1     0.0234
     110 H         1.128949   -1.61434   3.852601 H        1 UNL1     0.0234
     111 H         1.090031   -0.502947   2.528918 H        1 UNL1     0.0234
     112 H         4.183229   -5.150342   -0.108685 H        1 UNL1     0.0342
     113 H         2.529786   -4.801291   -0.727173 H        1 UNL1     0.0342
     114 H         3.888897   -4.948466   -1.844816 H        1 UNL1     0.0342
     115 H         6.374024   -0.016732   0.145331 H        1 UNL1     0.0234
     116 H         5.963337   1.02686   1.510262 H        1 UNL1     0.0234
     117 H         6.124057   -0.734747   1.666963 H        1 UNL1     0.0234
     118 H         2.222502   -0.841983   6.983597 H        1 UNL1     0.0309
     119 H         0.775398   -0.595473   8.009845 H        1 UNL1     0.0309
     120 H         0.650661   -0.783655   6.274568 H        1 UNL1     0.0309
     121 H         4.513943   1.8902   3.346503 H        1 UNL1     0.0524
     122 H         4.375354   1.230252   4.981165 H        1 UNL1     0.0524
     123 H         5.986311   1.44704   4.252081 H        1 UNL1     0.0524
@<TRIPOS>BOND
     1     1     2    1
     2     1    42    1
     3     2     3    2
     4     3     4    1
     5     4     5    2
     6     5     7    1
     7     6    75    1
     8     6    76    1
     9     6    77    1
    10     7     9   am
    11     9    10    1
    12    10    11    2
    13    10    43    1
    14    11    14    1
    15    11    15    1
    16    12    13   ar
    17    12    27   ar
    18    12    43    1
    19    13    14    1
    20    13    30   ar
    21    14    17    2
    22    15    16    1
    23    16    17    1
    24    16    18    1
    25    16    22    1
    26    18    19    1
    27    19    20    1
    28    20    21    1
    29    21    22    1
    30    23    24    1
    31    23    88    1
    32    23    89    1
    33    24    25    1
    34    24    26    1
    35    24    90    1
    36    25    91    1
    37    25    92    1
    38    25    93    1
    39    26    94    1
    40    26    95    1
    41    26    96    1
    42    27    28   ar
    43    28    29   ar
    44    29    30   ar
    45    29    31    1
    46    30    33    1
    47    31    32    1
    48    32    33    1
    49    32    35    1
    50    34    97    1
    51    34    98    1
    52    34    99    1
    53    35    61    1
    54    36    37    1
    55    36    60    1
    56    37    38    1
    57    38    39    1
    58    39    40    1
    59    40    41    1
    60    41    42    1
    61    45   100    1
    62    47   101    1
    63    47   102    1
    64    47   103    1
    65    48   104    1
    66    49   105    1
    67    49   106    1
    68    49   107    1
    69    50   108    1
    70    51    59    1
    71    52   109    1
    72    52   110    1
    73    52   111    1
    74    53    54    1
    75    54    55    2
    76    54    56    1
    77    56   112    1
    78    56   113    1
    79    56   114    1
    80    57   115    1
    81    57   116    1
    82    57   117    1
    83    58   118    1
    84    58   119    1
    85    58   120    1
    86    59   121    1
    87    59   122    1
    88    59   123    1
    89    60    61    2
    90     1    47    1
    91     1    62    1
    92     2    63    1
    93     3    64    1
    94     4    65    1
    95     5     6    1
    96     7     8    2
    97     9    78    1
    98    15    79    1
    99    18    80    1
   100    18    81    1
   101    19    82    1
   102    19    83    1
   103    20    23    1
   104    21    84    1
   105    21    85    1
   106    22    86    1
   107    22    87    1
   108    27    45    1
   109    28    34    1
   110    32    58    1
   111    33    46    2
   112    36    51    1
   113    36    66    1
   114    37    52    1
   115    37    67    1
   116    38    53    1
   117    38    68    1
   118    42    48    1
   119    42    72    1
   120    43    44    2
   121    60    73    1
   122    61    74    1
   123    39    69    1
   124    39    57    1
   125    40    70    1
   126    40    50    1
   127    41    71    1
   128    41    49    1
