@<TRIPOS>MOLECULE
*****
 123 128 0 0 0
SMALL
GASTEIGER

@<TRIPOS>ATOM
     1 C         -0.883641   4.023509   0.275437 C.3        1 UNL1     0.0009
     2 C         -2.547529   4.835551   0.180034 C.2        1 UNL1     -0.0787
     3 C         -3.579529   5.498203   -0.589325 C.2        1 UNL1     -0.0649
     4 C         -5.123105   5.965663   -0.074337 C.2        1 UNL1     -0.0542
     5 C         -6.430221   6.316215   -0.493432 C.2        1 UNL1     0.0115
     6 C         -7.301073   6.668114   -1.730811 C.3        1 UNL1     -0.0348
     7 C         -7.628737   6.261983   0.573154 C.2        1 UNL1     0.2441
     8 O         -8.088308   7.26105   1.109049 O.2        1 UNL1     -0.2702
     9 N         -8.288678   5.023468   0.655065 N.am        1 UNL1     -0.2772
     10 C         -7.660294   4.203714   1.564163 C.2        1 UNL1     0.1049
     11 C         -6.608653   3.539895   1.119622 C.2        1 UNL1     0.0801
     12 C         -6.754606   4.153784   3.895379 C.ar        1 UNL1     0.0753
     13 C         -5.549339   3.625972   3.332037 C.ar        1 UNL1     0.0305
     14 C         -5.485904   3.179246   1.942266 C.2        1 UNL1     0.0924
     15 N         -6.164694   3.366205   -0.137065 N.pl3        1 UNL1     -0.3170
     16 C         -5.081706   2.419894   -0.093636 C.3        1 UNL1     0.1275
     17 N         -4.495286   2.579904   1.287751 N.2        1 UNL1     -0.2557
     18 C         -5.698315   1.024922   -0.132957 C.3        1 UNL1     0.0016
     19 C         -6.577572   0.916504   -1.368572 C.3        1 UNL1     0.0026
     20 N         -5.75902   1.160986   -2.548076 N.3        1 UNL1     -0.3018
     21 C         -5.074092   2.455073   -2.572178 C.3        1 UNL1     0.0026
     22 C         -4.193082   2.540619   -1.324621 C.3        1 UNL1     0.0016
     23 C         -6.423   0.790482   -3.781973 C.3        1 UNL1     0.0012
     24 C         -6.545974   -0.737603   -3.889627 C.3        1 UNL1     -0.0339
     25 C         -7.962092   -1.214711   -3.527639 C.3        1 UNL1     -0.0615
     26 C         -6.139824   -1.196125   -5.27944 C.3        1 UNL1     -0.0615
     27 C         -6.842367   4.464402   5.250345 C.ar        1 UNL1     0.1347
     28 C         -5.808218   4.253953   6.144939 C.ar        1 UNL1     0.0342
     29 C         -4.615484   3.779476   5.558917 C.ar        1 UNL1     0.1435
     30 C         -4.501434   3.498038   4.196931 C.ar        1 UNL1     0.0774
     31 O         -3.55375   3.420816   6.313298 O.3        1 UNL1     -0.4436
     32 C         -2.767389   2.579606   5.456049 C.3        1 UNL1     0.3143
     33 C         -3.160529   2.972612   4.046368 C.2        1 UNL1     0.2504
     34 C         -5.910255   4.324987   7.643152 C.3        1 UNL1     -0.0327
     35 O         -1.396374   2.959104   5.627949 O.2        1 UNL1     -0.4528
     36 C         0.63929   -0.183386   5.004313 C.3        1 UNL1     0.0854
     37 C         0.676039   -1.109824   3.728427 C.3        1 UNL1     0.0236
     38 C         2.133717   -1.3364   3.099476 C.3        1 UNL1     0.1131
     39 C         3.055705   -0.089981   2.78539 C.3        1 UNL1     0.0200
     40 C         2.418649   1.271072   2.06142 C.3        1 UNL1     0.0661
     41 C         1.457514   1.295595   0.663841 C.3        1 UNL1     0.0091
     42 C         0.099652   2.427318   0.17311 C.3        1 UNL1     0.0661
     43 C         -7.936796   4.275561   3.006639 C.2        1 UNL1     0.2131
     44 O         -9.083034   4.326265   3.414443 O.2        1 UNL1     -0.2851
     45 O         -8.036349   5.01664   5.709559 O.3        1 UNL1     -0.5056
     46 O         -2.505969   2.891118   3.031103 O.2        1 UNL1     -0.2836
     47 C         0.241736   5.091131   0.214676 C.3        1 UNL1     -0.0566
     48 O         0.621791   2.64326   -1.197968 O.3        1 UNL1     -0.3909
     49 C         0.986874   -0.111508   0.370493 C.3        1 UNL1     -0.0577
     50 O         1.884938   2.150864   3.030359 O.3        1 UNL1     -0.3910
     51 O         1.847709   0.465942   5.329163 O.3        1 UNL1     -0.3753
     52 C         -0.594204   -0.921908   2.836171 C.3        1 UNL1     -0.0564
     53 O         2.196983   -2.476459   2.12552 O.3        1 UNL1     -0.4608
     54 C         2.943199   -2.500025   0.976374 C.2        1 UNL1     0.3042
     55 O         2.544777   -2.337626   -0.176329 O.2        1 UNL1     -0.2512
     56 C         4.413083   -2.694764   1.217687 C.3        1 UNL1     0.0332
     57 C         4.028491   0.118115   4.03781 C.3        1 UNL1     -0.0567
     58 C         -3.234817   1.128988   5.71825 C.3        1 UNL1     0.0210
     59 C         1.790479   1.292722   6.490638 C.3        1 UNL1     0.0372
     60 C         -0.419937   0.862103   4.992004 C.2        1 UNL1     -0.0208
     61 C         -0.362375   2.154832   5.31493 C.2        1 UNL1     0.0882
     62 H         -1.065069   3.820168   1.337722 H        1 UNL1     0.0365
     63 H         -2.840598   4.823427   1.231905 H        1 UNL1     0.0576
     64 H         -3.500471   5.614295   -1.672552 H        1 UNL1     0.0615
     65 H         -5.068852   5.888595   1.014974 H        1 UNL1     0.0622
     66 H         0.383673   -0.861586   5.830601 H        1 UNL1     0.0645
     67 H         0.447583   -2.115932   4.120999 H        1 UNL1     0.0362
     68 H         2.618944   -1.853484   3.941319 H        1 UNL1     0.0741
     69 H         3.824008   -0.392727   2.086489 H        1 UNL1     0.0359
     70 H         3.351621   1.762729   1.725417 H        1 UNL1     0.0600
     71 H         2.241419   1.427497   -0.107555 H        1 UNL1     0.0348
     72 H         0.66857   2.955955   0.951693 H        1 UNL1     0.0602
     73 H         -1.357546   0.406979   4.78952 H        1 UNL1     0.0628
     74 H         0.562477   2.708734   5.479491 H        1 UNL1     0.1022
     75 H         -6.784548   7.422559   -2.371941 H        1 UNL1     0.0279
     76 H         -7.497074   5.859862   -2.431797 H        1 UNL1     0.0279
     77 H         -8.222659   7.205523   -1.463282 H        1 UNL1     0.0279
     78 H         -8.25692   4.558471   -0.249837 H        1 UNL1     0.1553
     79 H         -6.732444   3.505715   -0.95262 H        1 UNL1     0.1484
     80 H         -4.894487   0.278974   -0.146673 H        1 UNL1     0.0317
     81 H         -6.289008   0.832638   0.769129 H        1 UNL1     0.0317
     82 H         -7.427875   1.612957   -1.325575 H        1 UNL1     0.0428
     83 H         -7.008613   -0.085094   -1.376007 H        1 UNL1     0.0428
     84 H         -4.404174   2.580904   -3.428442 H        1 UNL1     0.0428
     85 H         -5.781959   3.290619   -2.662195 H        1 UNL1     0.0428
     86 H         -3.610237   3.435255   -1.442543 H        1 UNL1     0.0317
     87 H         -3.440248   1.743105   -1.342131 H        1 UNL1     0.0317
     88 H         -7.432285   1.222325   -3.7697 H        1 UNL1     0.0429
     89 H         -5.904914   1.208512   -4.654677 H        1 UNL1     0.0429
     90 H         -5.833126   -1.204799   -3.199852 H        1 UNL1     0.0308
     91 H         -8.725306   -0.605473   -4.021031 H        1 UNL1     0.0233
     92 H         -8.101021   -2.261072   -3.809481 H        1 UNL1     0.0233
     93 H         -8.158652   -1.159584   -2.450068 H        1 UNL1     0.0233
     94 H         -6.575717   -2.177457   -5.495821 H        1 UNL1     0.0233
     95 H         -6.509531   -0.490425   -6.028617 H        1 UNL1     0.0233
     96 H         -5.05289   -1.27265   -5.372636 H        1 UNL1     0.0233
     97 H         -6.884289   4.677612   7.968949 H        1 UNL1     0.0280
     98 H         -5.773148   3.342912   8.114306 H        1 UNL1     0.0280
     99 H         -5.144612   5.015646   8.032864 H        1 UNL1     0.0280
     100 H         -8.355449   5.739554   5.198489 H        1 UNL1     0.2922
     101 H         0.878116   5.005052   1.095168 H        1 UNL1     0.0236
     102 H         -0.135449   6.104351   0.080136 H        1 UNL1     0.0236
     103 H         0.921151   4.928579   -0.63865 H        1 UNL1     0.0236
     104 H         1.595907   2.69317   -1.138159 H        1 UNL1     0.2098
     105 H         1.569459   -0.63141   -0.385885 H        1 UNL1     0.0234
     106 H         0.861275   -0.742387   1.250347 H        1 UNL1     0.0234
     107 H         -0.0   0.0   0.0 H        1 UNL1     0.0234
     108 H         2.62923   2.668459   3.393529 H        1 UNL1     0.2098
     109 H         -1.51986   -1.175145   3.371655 H        1 UNL1     0.0234
     110 H         -0.678745   0.085432   2.414434 H        1 UNL1     0.0234
     111 H         -0.571097   -1.577983   1.955843 H        1 UNL1     0.0234
     112 H         4.951381   -2.682986   0.26509 H        1 UNL1     0.0342
     113 H         4.817318   -1.952279   1.904093 H        1 UNL1     0.0342
     114 H         4.557788   -3.683668   1.67408 H        1 UNL1     0.0342
     115 H         3.79665   1.041658   4.585994 H        1 UNL1     0.0234
     116 H         4.009271   -0.703791   4.756247 H        1 UNL1     0.0234
     117 H         5.079648   0.297306   3.753378 H        1 UNL1     0.0234
     118 H         -3.018885   0.463096   4.864454 H        1 UNL1     0.0309
     119 H         -2.804746   0.696708   6.627302 H        1 UNL1     0.0309
     120 H         -4.321783   1.051396   5.830462 H        1 UNL1     0.0309
     121 H         2.55792   2.059403   6.387718 H        1 UNL1     0.0524
     122 H         0.819744   1.806119   6.591303 H        1 UNL1     0.0524
     123 H         1.970086   0.700009   7.383121 H        1 UNL1     0.0524
@<TRIPOS>BOND
     1     1     2    1
     2     1    42    1
     3     2     3    2
     4     3     4    1
     5     4     5    2
     6     5     7    1
     7     6    75    1
     8     6    76    1
     9     6    77    1
    10     7     9   am
    11     9    10    1
    12    10    11    2
    13    10    43    1
    14    11    14    1
    15    11    15    1
    16    12    13   ar
    17    12    27   ar
    18    12    43    1
    19    13    14    1
    20    13    30   ar
    21    14    17    2
    22    15    16    1
    23    16    17    1
    24    16    18    1
    25    16    22    1
    26    18    19    1
    27    19    20    1
    28    20    21    1
    29    21    22    1
    30    23    24    1
    31    23    88    1
    32    23    89    1
    33    24    25    1
    34    24    26    1
    35    24    90    1
    36    25    91    1
    37    25    92    1
    38    25    93    1
    39    26    94    1
    40    26    95    1
    41    26    96    1
    42    27    28   ar
    43    28    29   ar
    44    29    30   ar
    45    29    31    1
    46    30    33    1
    47    31    32    1
    48    32    33    1
    49    32    35    1
    50    34    97    1
    51    34    98    1
    52    34    99    1
    53    35    61    1
    54    36    37    1
    55    36    60    1
    56    37    38    1
    57    38    39    1
    58    39    40    1
    59    40    41    1
    60    41    42    1
    61    45   100    1
    62    47   101    1
    63    47   102    1
    64    47   103    1
    65    48   104    1
    66    49   105    1
    67    49   106    1
    68    49   107    1
    69    50   108    1
    70    51    59    1
    71    52   109    1
    72    52   110    1
    73    52   111    1
    74    53    54    1
    75    54    55    2
    76    54    56    1
    77    56   112    1
    78    56   113    1
    79    56   114    1
    80    57   115    1
    81    57   116    1
    82    57   117    1
    83    58   118    1
    84    58   119    1
    85    58   120    1
    86    59   121    1
    87    59   122    1
    88    59   123    1
    89    60    61    2
    90     1    47    1
    91     1    62    1
    92     2    63    1
    93     3    64    1
    94     4    65    1
    95     5     6    1
    96     7     8    2
    97     9    78    1
    98    15    79    1
    99    18    80    1
   100    18    81    1
   101    19    82    1
   102    19    83    1
   103    20    23    1
   104    21    84    1
   105    21    85    1
   106    22    86    1
   107    22    87    1
   108    27    45    1
   109    28    34    1
   110    32    58    1
   111    33    46    2
   112    36    51    1
   113    36    66    1
   114    37    52    1
   115    37    67    1
   116    38    53    1
   117    38    68    1
   118    42    48    1
   119    42    72    1
   120    43    44    2
   121    60    73    1
   122    61    74    1
   123    39    69    1
   124    39    57    1
   125    40    70    1
   126    40    50    1
   127    41    71    1
   128    41    49    1
