@<TRIPOS>MOLECULE
*****
 123 128 0 0 0
SMALL
GASTEIGER

@<TRIPOS>ATOM
     1 C         4.952652   2.272493   0.564599 C.3        1 UNL1     0.0009
     2 C         6.338807   3.16148   -0.287054 C.2        1 UNL1     -0.0787
     3 C         7.654865   3.150909   -0.890316 C.2        1 UNL1     -0.0649
     4 C         8.436802   4.413071   -1.703876 C.2        1 UNL1     -0.0542
     5 C         9.465914   4.74226   -2.620196 C.2        1 UNL1     0.0115
     6 C         10.69306   4.177851   -3.387581 C.3        1 UNL1     -0.0348
     7 C         9.438104   6.178611   -3.336514 C.2        1 UNL1     0.2441
     8 O         10.154063   7.108444   -2.99106 O.2        1 UNL1     -0.2702
     9 N         8.728476   6.218267   -4.549365 N.am        1 UNL1     -0.2772
     10 C         7.399141   6.488941   -4.319311 C.2        1 UNL1     0.1049
     11 C         6.64419   5.457534   -3.98694 C.2        1 UNL1     0.0801
     12 C         5.875794   8.04844   -3.092643 C.ar        1 UNL1     0.0753
     13 C         5.215485   6.882467   -2.589547 C.ar        1 UNL1     0.0305
     14 C         5.49691   5.552575   -3.125493 C.2        1 UNL1     0.0924
     15 N         6.90999   4.140937   -4.036431 N.pl3        1 UNL1     -0.3170
     16 C         5.694464   3.435385   -3.728296 C.3        1 UNL1     0.1275
     17 N         4.916573   4.387328   -2.852845 N.2        1 UNL1     -0.2557
     18 C         4.902559   3.310668   -5.026384 C.3        1 UNL1     0.0016
     19 C         5.777606   2.629214   -6.066336 C.3        1 UNL1     0.0026
     20 N         6.168494   1.319618   -5.563153 N.3        1 UNL1     -0.3018
     21 C         6.883057   1.332587   -4.285029 C.3        1 UNL1     0.0026
     22 C         5.984011   2.017329   -3.254137 C.3        1 UNL1     0.0016
     23 C         6.748136   0.472366   -6.586297 C.3        1 UNL1     0.0012
     24 C         5.673513   0.030346   -7.592061 C.3        1 UNL1     -0.0339
     25 C         5.945031   -1.388801   -8.117757 C.3        1 UNL1     -0.0615
     26 C         4.295328   0.139341   -6.963169 C.3        1 UNL1     -0.0615
     27 C         5.516251   9.32357   -2.662655 C.ar        1 UNL1     0.1347
     28 C         4.489043   9.559914   -1.766532 C.ar        1 UNL1     0.0342
     29 C         3.885898   8.394504   -1.247688 C.ar        1 UNL1     0.1435
     30 C         4.259935   7.109239   -1.641911 C.ar        1 UNL1     0.0774
     31 O         2.79846   8.459656   -0.448789 O.3        1 UNL1     -0.4436
     32 C         2.214733   7.150235   -0.523308 C.3        1 UNL1     0.3143
     33 C         3.349179   6.233595   -0.934425 C.2        1 UNL1     0.2504
     34 C         3.883613   10.899705   -1.45266 C.3        1 UNL1     -0.0327
     35 O         1.837148   6.775822   0.807292 O.2        1 UNL1     -0.4528
     36 C         -1.167587   4.487095   0.431286 C.3        1 UNL1     0.0854
     37 C         -1.298042   3.138679   -0.376353 C.3        1 UNL1     0.0236
     38 C         -1.803789   1.88253   0.482746 C.3        1 UNL1     0.1131
     39 C         -1.091611   1.528648   1.850167 C.3        1 UNL1     0.0200
     40 C         0.571769   1.563291   1.970182 C.3        1 UNL1     0.0661
     41 C         1.660618   0.816497   0.90514 C.3        1 UNL1     0.0091
     42 C         3.347453   1.315387   0.384468 C.3        1 UNL1     0.0661
     43 C         6.895529   7.86062   -4.154305 C.2        1 UNL1     0.2131
     44 O         7.235729   8.740684   -4.924037 O.2        1 UNL1     -0.2851
     45 O         6.239473   10.40233   -3.167298 O.3        1 UNL1     -0.5056
     46 O         3.482073   5.051427   -0.709322 O.2        1 UNL1     -0.2836
     47 C         5.320508   1.994404   2.046938 C.3        1 UNL1     -0.0566
     48 O         3.933788   -0.030408   0.594622 O.3        1 UNL1     -0.3909
     49 C         0.915986   0.40626   -0.345749 C.3        1 UNL1     -0.0577
     50 O         1.024143   2.863456   2.290578 O.3        1 UNL1     -0.3910
     51 O         -1.339125   4.388244   1.827077 O.3        1 UNL1     -0.3753
     52 C         -0.187812   3.005366   -1.469315 C.3        1 UNL1     -0.0564
     53 O         -2.252222   0.722187   -0.356801 O.3        1 UNL1     -0.4608
     54 C         -2.051156   -0.600038   -0.058098 C.2        1 UNL1     0.3042
     55 O         -1.212988   -1.356948   -0.546358 O.2        1 UNL1     -0.2512
     56 C         -2.946571   -1.112853   1.033675 C.3        1 UNL1     0.0332
     57 C         -1.937917   2.208495   3.024795 C.3        1 UNL1     -0.0567
     58 C         1.174103   7.199626   -1.66619 C.3        1 UNL1     0.0210
     59 C         -1.806922   5.578764   2.45929 C.3        1 UNL1     0.0372
     60 C         0.099562   5.234712   0.206425 C.2        1 UNL1     -0.0208
     61 C         0.919694   5.826976   1.075536 C.2        1 UNL1     0.0882
     62 H         4.374678   3.204463   0.555133 H        1 UNL1     0.0365
     63 H         5.961138   4.186029   -0.275469 H        1 UNL1     0.0576
     64 H         8.219423   2.224339   -1.016208 H        1 UNL1     0.0615
     65 H         7.842162   5.294756   -1.449876 H        1 UNL1     0.0622
     66 H         -1.968859   5.125694   0.033541 H        1 UNL1     0.0645
     67 H         -2.159975   3.308807   -1.044701 H        1 UNL1     0.0362
     68 H         -2.806636   2.241336   0.760378 H        1 UNL1     0.0741
     69 H         -1.326858   0.505261   2.110448 H        1 UNL1     0.0359
     70 H         0.707641   0.98516   2.904186 H        1 UNL1     0.0600
     71 H         1.787823   -0.160107   1.412113 H        1 UNL1     0.0348
     72 H         3.144557   1.860394   1.317804 H        1 UNL1     0.0602
     73 H         0.246901   5.366522   -0.836726 H        1 UNL1     0.0628
     74 H         0.871813   5.694942   2.156975 H        1 UNL1     0.1022
     75 H         10.795992   3.080281   -3.209315 H        1 UNL1     0.0279
     76 H         10.655335   4.236358   -4.473041 H        1 UNL1     0.0279
     77 H         11.649557   4.552033   -2.994133 H        1 UNL1     0.0279
     78 H         8.781576   5.310396   -5.00656 H        1 UNL1     0.1553
     79 H         7.644867   3.741544   -4.590845 H        1 UNL1     0.1484
     80 H         3.988363   2.736312   -4.8337 H        1 UNL1     0.0317
     81 H         4.584327   4.29482   -5.386697 H        1 UNL1     0.0317
     82 H         6.659863   3.236395   -6.317067 H        1 UNL1     0.0428
     83 H         5.194216   2.552062   -6.984352 H        1 UNL1     0.0428
     84 H         7.094466   0.333841   -3.890539 H        1 UNL1     0.0428
     85 H         7.873825   1.799003   -4.37533 H        1 UNL1     0.0428
     86 H         6.47859   1.890578   -2.308984 H        1 UNL1     0.0317
     87 H         5.053764   1.449154   -3.132008 H        1 UNL1     0.0317
     88 H         7.509173   1.055144   -7.121543 H        1 UNL1     0.0429
     89 H         7.257811   -0.393866   -6.14511 H        1 UNL1     0.0429
     90 H         5.670499   0.72295   -8.442063 H        1 UNL1     0.0308
     91 H         6.196235   -2.073706   -7.30234 H        1 UNL1     0.0233
     92 H         5.075572   -1.774598   -8.655168 H        1 UNL1     0.0233
     93 H         6.780938   -1.418566   -8.827128 H        1 UNL1     0.0233
     94 H         3.553582   -0.369406   -7.58833 H        1 UNL1     0.0233
     95 H         4.294042   -0.340517   -5.98047 H        1 UNL1     0.0233
     96 H         3.991328   1.183354   -6.846595 H        1 UNL1     0.0233
     97 H         2.818188   10.924311   -1.661211 H        1 UNL1     0.0280
     98 H         3.988385   11.162925   -0.392003 H        1 UNL1     0.0280
     99 H         4.37295   11.677546   -2.061435 H        1 UNL1     0.0280
     100 H         7.174149   10.3042   -3.118572 H        1 UNL1     0.2922
     101 H         4.413606   1.810176   2.622477 H        1 UNL1     0.0236
     102 H         5.934331   2.777661   2.490462 H        1 UNL1     0.0236
     103 H         5.915777   1.072965   2.160062 H        1 UNL1     0.0236
     104 H         3.201343   -0.641286   0.807512 H        1 UNL1     0.2098
     105 H         0.682728   1.227202   -1.01914 H        1 UNL1     0.0234
     106 H         1.370426   -0.416945   -0.896879 H        1 UNL1     0.0234
     107 H         0.0   -0.0   0.0 H        1 UNL1     0.0234
     108 H         1.986405   2.884782   2.125151 H        1 UNL1     0.2098
     109 H         -0.164421   3.87079   -2.146224 H        1 UNL1     0.0234
     110 H         0.81081   2.840621   -1.05056 H        1 UNL1     0.0234
     111 H         -0.354934   2.130261   -2.111349 H        1 UNL1     0.0234
     112 H         -2.72124   -2.164206   1.236723 H        1 UNL1     0.0342
     113 H         -2.87049   -0.514768   1.94051 H        1 UNL1     0.0342
     114 H         -3.985646   -1.053023   0.681669 H        1 UNL1     0.0342
     115 H         -1.929339   1.599734   3.939412 H        1 UNL1     0.0234
     116 H         -1.598174   3.21054   3.294107 H        1 UNL1     0.0234
     117 H         -3.019907   2.260961   2.813875 H        1 UNL1     0.0234
     118 H         0.138726   7.222415   -1.283461 H        1 UNL1     0.0309
     119 H         1.323062   8.043996   -2.346669 H        1 UNL1     0.0309
     120 H         1.192724   6.299849   -2.290818 H        1 UNL1     0.0309
     121 H         -1.471933   5.555044   3.495908 H        1 UNL1     0.0524
     122 H         -1.390921   6.489272   1.996737 H        1 UNL1     0.0524
     123 H         -2.8914   5.625648   2.416808 H        1 UNL1     0.0524
@<TRIPOS>BOND
     1     1     2    1
     2     1    42    1
     3     2     3    2
     4     3     4    1
     5     4     5    2
     6     5     7    1
     7     6    75    1
     8     6    76    1
     9     6    77    1
    10     7     9   am
    11     9    10    1
    12    10    11    2
    13    10    43    1
    14    11    14    1
    15    11    15    1
    16    12    13   ar
    17    12    27   ar
    18    12    43    1
    19    13    14    1
    20    13    30   ar
    21    14    17    2
    22    15    16    1
    23    16    17    1
    24    16    18    1
    25    16    22    1
    26    18    19    1
    27    19    20    1
    28    20    21    1
    29    21    22    1
    30    23    24    1
    31    23    88    1
    32    23    89    1
    33    24    25    1
    34    24    26    1
    35    24    90    1
    36    25    91    1
    37    25    92    1
    38    25    93    1
    39    26    94    1
    40    26    95    1
    41    26    96    1
    42    27    28   ar
    43    28    29   ar
    44    29    30   ar
    45    29    31    1
    46    30    33    1
    47    31    32    1
    48    32    33    1
    49    32    35    1
    50    34    97    1
    51    34    98    1
    52    34    99    1
    53    35    61    1
    54    36    37    1
    55    36    60    1
    56    37    38    1
    57    38    39    1
    58    39    40    1
    59    40    41    1
    60    41    42    1
    61    45   100    1
    62    47   101    1
    63    47   102    1
    64    47   103    1
    65    48   104    1
    66    49   105    1
    67    49   106    1
    68    49   107    1
    69    50   108    1
    70    51    59    1
    71    52   109    1
    72    52   110    1
    73    52   111    1
    74    53    54    1
    75    54    55    2
    76    54    56    1
    77    56   112    1
    78    56   113    1
    79    56   114    1
    80    57   115    1
    81    57   116    1
    82    57   117    1
    83    58   118    1
    84    58   119    1
    85    58   120    1
    86    59   121    1
    87    59   122    1
    88    59   123    1
    89    60    61    2
    90     1    47    1
    91     1    62    1
    92     2    63    1
    93     3    64    1
    94     4    65    1
    95     5     6    1
    96     7     8    2
    97     9    78    1
    98    15    79    1
    99    18    80    1
   100    18    81    1
   101    19    82    1
   102    19    83    1
   103    20    23    1
   104    21    84    1
   105    21    85    1
   106    22    86    1
   107    22    87    1
   108    27    45    1
   109    28    34    1
   110    32    58    1
   111    33    46    2
   112    36    51    1
   113    36    66    1
   114    37    52    1
   115    37    67    1
   116    38    53    1
   117    38    68    1
   118    42    48    1
   119    42    72    1
   120    43    44    2
   121    60    73    1
   122    61    74    1
   123    39    69    1
   124    39    57    1
   125    40    70    1
   126    40    50    1
   127    41    71    1
   128    41    49    1
