@<TRIPOS>MOLECULE
*****
 123 128 0 0 0
SMALL
GASTEIGER

@<TRIPOS>ATOM
     1 C         3.589107   1.623603   1.627144 C.3        1 UNL1     0.0009
     2 C         4.934244   2.627071   0.839301 C.2        1 UNL1     -0.0787
     3 C         6.172493   2.701735   0.092836 C.2        1 UNL1     -0.0649
     4 C         6.949483   4.084992   -0.498131 C.2        1 UNL1     -0.0542
     5 C         7.893451   4.576238   -1.433375 C.2        1 UNL1     0.0115
     6 C         8.985948   4.156208   -2.454819 C.3        1 UNL1     -0.0348
     7 C         7.890712   6.141214   -1.790912 C.2        1 UNL1     0.2441
     8 O         8.704876   6.930193   -1.331374 O.2        1 UNL1     -0.2702
     9 N         7.057717   6.498411   -2.865473 N.am        1 UNL1     -0.2772
     10 C         5.784245   6.765209   -2.417802 C.2        1 UNL1     0.1049
     11 C         4.998069   5.718742   -2.241572 C.2        1 UNL1     0.0801
     12 C         4.519501   8.055211   -0.687585 C.ar        1 UNL1     0.0753
     13 C         3.836131   6.833515   -0.389136 C.ar        1 UNL1     0.0305
     14 C         3.961368   5.657431   -1.247153 C.2        1 UNL1     0.0924
     15 N         5.161823   4.440972   -2.625 N.pl3        1 UNL1     -0.3170
     16 C         3.939726   3.736807   -2.340599 C.3        1 UNL1     0.1275
     17 N         3.332206   4.487524   -1.18083 N.2        1 UNL1     -0.2557
     18 C         3.004078   3.958305   -3.525168 C.3        1 UNL1     0.0016
     19 C         3.709371   3.504799   -4.793428 C.3        1 UNL1     0.0026
     20 N         4.057922   2.097338   -4.657072 N.3        1 UNL1     -0.3018
     21 C         4.906702   1.775529   -3.507994 C.3        1 UNL1     0.0026
     22 C         4.176863   2.23543   -2.244776 C.3        1 UNL1     0.0016
     23 C         4.460285   1.491968   -5.910977 C.3        1 UNL1     0.0012
     24 C         5.954392   1.133493   -5.881043 C.3        1 UNL1     -0.0339
     25 C         6.590849   1.488397   -4.527151 C.3        1 UNL1     -0.0615
     26 C         6.144609   -0.334637   -6.220441 C.3        1 UNL1     -0.0615
     27 C         4.301331   9.206702   0.065137 C.ar        1 UNL1     0.1347
     28 C         3.397587   9.269015   1.110801 C.ar        1 UNL1     0.0342
     29 C         2.772651   8.041612   1.417561 C.ar        1 UNL1     0.1435
     30 C         3.008364   6.871172   0.695253 C.ar        1 UNL1     0.0774
     31 O         1.786316   7.963478   2.337368 O.3        1 UNL1     -0.4436
     32 C         1.105595   6.736067   2.035782 C.3        1 UNL1     0.3143
     33 C         2.119794   5.893853   1.288595 C.2        1 UNL1     0.2504
     34 C         2.927605   10.521619   1.796512 C.3        1 UNL1     -0.0327
     35 O         0.849523   6.074025   3.280523 O.2        1 UNL1     -0.4528
     36 C         -2.334579   4.074392   2.7599 C.3        1 UNL1     0.0854
     37 C         -2.648659   2.96288   1.685927 C.3        1 UNL1     0.0236
     38 C         -3.146425   1.562486   2.288314 C.3        1 UNL1     0.1131
     39 C         -2.316567   0.863586   3.439463 C.3        1 UNL1     0.0200
     40 C         -0.651841   0.795415   3.358972 C.3        1 UNL1     0.0661
     41 C         0.258005   0.275012   2.025191 C.3        1 UNL1     0.0091
     42 C         1.909386   0.808192   1.430159 C.3        1 UNL1     0.0661
     43 C         5.40126   8.079548   -1.88097 C.2        1 UNL1     0.2131
     44 O         5.717682   9.101069   -2.463301 O.2        1 UNL1     -0.2851
     45 O         5.040655   10.341348   -0.262605 O.3        1 UNL1     -0.5056
     46 O         2.191362   4.687337   1.217515 O.2        1 UNL1     -0.2836
     47 C         4.095555   0.986213   2.948971 C.3        1 UNL1     -0.0566
     48 O         2.417158   -0.573579   1.251292 O.3        1 UNL1     -0.3909
     49 C         -0.646093   0.20614   0.814672 C.3        1 UNL1     -0.0577
     50 O         -0.075195   1.961367   3.911926 O.3        1 UNL1     -0.3910
     51 O         -2.359503   3.655251   4.105682 O.3        1 UNL1     -0.3753
     52 C         -1.676686   3.043543   0.463753 C.3        1 UNL1     -0.0564
     53 O         -3.765762   0.655085   1.26588 O.3        1 UNL1     -0.4608
     54 C         -4.833759   -0.175679   1.483002 C.2        1 UNL1     0.3042
     55 O         -4.858084   -1.19731   2.168216 O.2        1 UNL1     -0.2512
     56 C         -6.103239   0.294005   0.831441 C.3        1 UNL1     0.0332
     57 C         -2.978791   1.28235   4.833834 C.3        1 UNL1     -0.0567
     58 C         -0.047244   7.100728   1.071668 C.3        1 UNL1     0.0210
     59 C         -1.253876   4.097441   4.891763 C.3        1 UNL1     0.0372
     60 C         -1.049203   4.797372   2.55923 C.2        1 UNL1     -0.0208
     61 C         -0.098842   5.130048   3.433808 C.2        1 UNL1     0.0882
     62 H         3.081849   2.555825   1.903485 H        1 UNL1     0.0365
     63 H         4.634509   3.635321   1.132666 H        1 UNL1     0.0576
     64 H         6.652074   1.807422   -0.311285 H        1 UNL1     0.0615
     65 H         6.450832   4.906711   0.023028 H        1 UNL1     0.0622
     66 H         -3.126602   4.823753   2.621319 H        1 UNL1     0.0645
     67 H         -3.563918   3.324384   1.185751 H        1 UNL1     0.0362
     68 H         -4.084694   1.889144   2.762093 H        1 UNL1     0.0741
     69 H         -2.594771   -0.180932   3.484107 H        1 UNL1     0.0359
     70 H         -0.456704   0.007002   4.110894 H        1 UNL1     0.0600
     71 H         0.369411   -0.798545   2.274229 H        1 UNL1     0.0348
     72 H         1.849086   1.124899   2.481528 H        1 UNL1     0.0602
     73 H         -1.007448   5.166   1.564434 H        1 UNL1     0.0628
     74 H         -0.03783   4.747743   4.453297 H        1 UNL1     0.1022
     75 H         9.800232   3.586285   -1.94574 H        1 UNL1     0.0279
     76 H         8.677093   3.471358   -3.241367 H        1 UNL1     0.0279
     77 H         9.542263   5.014386   -2.859474 H        1 UNL1     0.0279
     78 H         6.995422   5.723312   -3.522298 H        1 UNL1     0.1553
     79 H         5.801318   4.152332   -3.342402 H        1 UNL1     0.1484
     80 H         2.077546   3.395538   -3.359042 H        1 UNL1     0.0317
     81 H         2.719815   5.012857   -3.607422 H        1 UNL1     0.0317
     82 H         4.600259   4.114588   -5.004114 H        1 UNL1     0.0428
     83 H         3.025316   3.673197   -5.625751 H        1 UNL1     0.0428
     84 H         5.087736   0.703424   -3.382983 H        1 UNL1     0.0428
     85 H         5.912579   2.205899   -3.60953 H        1 UNL1     0.0428
     86 H         4.761209   1.866628   -1.422272 H        1 UNL1     0.0317
     87 H         3.227166   1.69609   -2.143367 H        1 UNL1     0.0317
     88 H         3.881949   0.568537   -6.045506 H        1 UNL1     0.0429
     89 H         4.22663   2.144641   -6.761974 H        1 UNL1     0.0429
     90 H         6.473769   1.692646   -6.668322 H        1 UNL1     0.0308
     91 H         6.766933   0.592998   -3.92353 H        1 UNL1     0.0233
     92 H         7.536903   2.015461   -4.671354 H        1 UNL1     0.0233
     93 H         5.957277   2.155202   -3.92983 H        1 UNL1     0.0233
     94 H         7.171597   -0.64378   -5.997812 H        1 UNL1     0.0233
     95 H         5.469599   -0.9481   -5.617128 H        1 UNL1     0.0233
     96 H         5.947036   -0.528471   -7.278439 H        1 UNL1     0.0233
     97 H         1.912041   10.783655   1.515092 H        1 UNL1     0.0280
     98 H         2.919106   10.416877   2.889313 H        1 UNL1     0.0280
     99 H         3.588772   11.360971   1.525508 H        1 UNL1     0.0280
     100 H         4.810707   10.734038   -1.086341 H        1 UNL1     0.2922
     101 H         3.262239   0.522544   3.476467 H        1 UNL1     0.0236
     102 H         4.640973   1.686258   3.580983 H        1 UNL1     0.0236
     103 H         4.80459   0.161591   2.766048 H        1 UNL1     0.0236
     104 H         1.644903   -1.172269   1.23857 H        1 UNL1     0.2098
     105 H         -1.392166   -0.583482   0.855693 H        1 UNL1     0.0234
     106 H         -1.112152   1.152321   0.539978 H        1 UNL1     0.0234
     107 H         0.0   0.0   -0.0 H        1 UNL1     0.0234
     108 H         -0.166878   1.898239   4.882172 H        1 UNL1     0.2098
     109 H         -2.045502   2.472109   -0.399468 H        1 UNL1     0.0234
     110 H         -1.456789   4.071441   0.155832 H        1 UNL1     0.0234
     111 H         -0.691618   2.620345   0.701431 H        1 UNL1     0.0234
     112 H         -6.837845   0.561068   1.597195 H        1 UNL1     0.0342
     113 H         -5.930281   1.124991   0.149245 H        1 UNL1     0.0342
     114 H         -6.51589   -0.538124   0.244547 H        1 UNL1     0.0342
     115 H         -3.525646   0.447475   5.293313 H        1 UNL1     0.0234
     116 H         -2.263886   1.652194   5.571517 H        1 UNL1     0.0234
     117 H         -3.781725   2.032567   4.731799 H        1 UNL1     0.0234
     118 H         -1.02378   7.131328   1.585912 H        1 UNL1     0.0309
     119 H         0.11278   8.049725   0.550132 H        1 UNL1     0.0309
     120 H         -0.196509   6.347006   0.290816 H        1 UNL1     0.0309
     121 H         -1.475586   3.864727   5.932938 H        1 UNL1     0.0524
     122 H         -0.318045   3.577473   4.627397 H        1 UNL1     0.0524
     123 H         -1.109586   5.167149   4.769294 H        1 UNL1     0.0524
@<TRIPOS>BOND
     1     1     2    1
     2     1    42    1
     3     2     3    2
     4     3     4    1
     5     4     5    2
     6     5     7    1
     7     6    75    1
     8     6    76    1
     9     6    77    1
    10     7     9   am
    11     9    10    1
    12    10    11    2
    13    10    43    1
    14    11    14    1
    15    11    15    1
    16    12    13   ar
    17    12    27   ar
    18    12    43    1
    19    13    14    1
    20    13    30   ar
    21    14    17    2
    22    15    16    1
    23    16    17    1
    24    16    18    1
    25    16    22    1
    26    18    19    1
    27    19    20    1
    28    20    21    1
    29    21    22    1
    30    23    24    1
    31    23    88    1
    32    23    89    1
    33    24    25    1
    34    24    26    1
    35    24    90    1
    36    25    91    1
    37    25    92    1
    38    25    93    1
    39    26    94    1
    40    26    95    1
    41    26    96    1
    42    27    28   ar
    43    28    29   ar
    44    29    30   ar
    45    29    31    1
    46    30    33    1
    47    31    32    1
    48    32    33    1
    49    32    35    1
    50    34    97    1
    51    34    98    1
    52    34    99    1
    53    35    61    1
    54    36    37    1
    55    36    60    1
    56    37    38    1
    57    38    39    1
    58    39    40    1
    59    40    41    1
    60    41    42    1
    61    45   100    1
    62    47   101    1
    63    47   102    1
    64    47   103    1
    65    48   104    1
    66    49   105    1
    67    49   106    1
    68    49   107    1
    69    50   108    1
    70    51    59    1
    71    52   109    1
    72    52   110    1
    73    52   111    1
    74    53    54    1
    75    54    55    2
    76    54    56    1
    77    56   112    1
    78    56   113    1
    79    56   114    1
    80    57   115    1
    81    57   116    1
    82    57   117    1
    83    58   118    1
    84    58   119    1
    85    58   120    1
    86    59   121    1
    87    59   122    1
    88    59   123    1
    89    60    61    2
    90     1    47    1
    91     1    62    1
    92     2    63    1
    93     3    64    1
    94     4    65    1
    95     5     6    1
    96     7     8    2
    97     9    78    1
    98    15    79    1
    99    18    80    1
   100    18    81    1
   101    19    82    1
   102    19    83    1
   103    20    23    1
   104    21    84    1
   105    21    85    1
   106    22    86    1
   107    22    87    1
   108    27    45    1
   109    28    34    1
   110    32    58    1
   111    33    46    2
   112    36    51    1
   113    36    66    1
   114    37    52    1
   115    37    67    1
   116    38    53    1
   117    38    68    1
   118    42    48    1
   119    42    72    1
   120    43    44    2
   121    60    73    1
   122    61    74    1
   123    39    69    1
   124    39    57    1
   125    40    70    1
   126    40    50    1
   127    41    71    1
   128    41    49    1
