@<TRIPOS>MOLECULE
*****
 123 128 0 0 0
SMALL
GASTEIGER

@<TRIPOS>ATOM
     1 C         3.683289   -1.056719   3.896899 C.3        1 UNL1     0.0009
     2 C         4.204113   -2.260137   5.207458 C.2        1 UNL1     -0.0787
     3 C         4.316215   -2.626051   6.603734 C.2        1 UNL1     -0.0649
     4 C         4.847886   -4.09564   7.254879 C.2        1 UNL1     -0.0542
     5 C         4.838797   -4.928824   8.400654 C.2        1 UNL1     0.0115
     6 C         4.464767   -4.989631   9.907215 C.3        1 UNL1     -0.0348
     7 C         5.217289   -6.480165   8.236115 C.2        1 UNL1     0.2441
     8 O         6.30918   -6.935381   8.547689 O.2        1 UNL1     -0.2702
     9 N         4.129333   -7.325438   7.956802 N.am        1 UNL1     -0.2772
     10 C         3.916509   -7.401621   6.599516 C.2        1 UNL1     0.1049
     11 C         3.208793   -6.422756   6.065491 C.2        1 UNL1     0.0801
     12 C         5.092509   -7.788981   4.425969 C.ar        1 UNL1     0.0753
     13 C         4.456993   -6.594506   3.959111 C.ar        1 UNL1     0.0305
     14 C         3.392205   -5.946244   4.721366 C.2        1 UNL1     0.0924
     15 N         2.477368   -5.463087   6.657589 N.pl3        1 UNL1     -0.3170
     16 C         1.766916   -4.753386   5.627135 C.3        1 UNL1     0.1275
     17 N         2.632267   -4.903177   4.399758 N.2        1 UNL1     -0.2557
     18 C         0.487292   -5.533325   5.340852 C.3        1 UNL1     0.0016
     19 C         -0.285748   -5.693305   6.640238 C.3        1 UNL1     0.0026
     20 N         -0.585891   -4.371039   7.171798 N.3        1 UNL1     -0.3018
     21 C         0.5807   -3.521975   7.421844 C.3        1 UNL1     0.0026
     22 C         1.339915   -3.370908   6.102501 C.3        1 UNL1     0.0016
     23 C         -1.567705   -4.4012   8.237526 C.3        1 UNL1     0.0012
     24 C         -0.890446   -4.693678   9.585685 C.3        1 UNL1     -0.0339
     25 C         -1.492718   -3.840754   10.714332 C.3        1 UNL1     -0.0615
     26 C         -0.975158   -6.177181   9.900049 C.3        1 UNL1     -0.0615
     27 C         6.020175   -8.467731   3.639296 C.ar        1 UNL1     0.1347
     28 C         6.361908   -8.071966   2.358422 C.ar        1 UNL1     0.0342
     29 C         5.760477   -6.86641   1.938804 C.ar        1 UNL1     0.1435
     30 C         4.856826   -6.156134   2.730096 C.ar        1 UNL1     0.0774
     31 O         5.90708   -6.407705   0.676622 O.3        1 UNL1     -0.4436
     32 C         4.821061   -5.486153   0.497239 C.3        1 UNL1     0.3143
     33 C         4.437247   -5.048996   1.89645 C.2        1 UNL1     0.2504
     34 C         7.150992   -8.880674   1.366737 C.3        1 UNL1     -0.0327
     35 O         5.347081   -4.332693   -0.170658 O.2        1 UNL1     -0.4528
     36 C         2.482638   -2.922237   -2.223381 C.3        1 UNL1     0.0854
     37 C         1.055589   -2.447592   -1.748232 C.3        1 UNL1     0.0236
     38 C         0.66979   -0.947136   -2.162398 C.3        1 UNL1     0.1131
     39 C         1.672067   0.236039   -1.849654 C.3        1 UNL1     0.0200
     40 C         2.444521   0.321113   -0.373674 C.3        1 UNL1     0.0661
     41 C         1.700499   0.197615   1.145796 C.3        1 UNL1     0.0091
     42 C         2.329493   -0.488671   2.72655 C.3        1 UNL1     0.0661
     43 C         4.664608   -8.330742   5.739611 C.2        1 UNL1     0.2131
     44 O         4.814825   -9.493227   6.069461 O.2        1 UNL1     -0.2851
     45 O         6.626655   -9.596629   4.186297 O.3        1 UNL1     -0.5056
     46 O         3.921628   -4.01109   2.246798 O.2        1 UNL1     -0.2836
     47 C         4.671623   0.139049   3.839299 C.3        1 UNL1     -0.0566
     48 O         1.886186   0.670695   3.538009 O.3        1 UNL1     -0.3909
     49 C         0.297566   -0.336098   0.960267 C.3        1 UNL1     -0.0577
     50 O         3.639584   -0.43341   -0.389241 O.3        1 UNL1     -0.3910
     51 O         3.304435   -1.92839   -2.792896 O.3        1 UNL1     -0.3753
     52 C         0.676092   -3.049202   -0.355753 C.3        1 UNL1     -0.0564
     53 O         -0.79204   -0.640687   -2.015882 O.3        1 UNL1     -0.4608
     54 C         -1.345788   0.144625   -1.038857 C.2        1 UNL1     0.3042
     55 O         -1.618119   1.342469   -1.108452 O.2        1 UNL1     -0.2512
     56 C         -1.687933   -0.607809   0.215533 C.3        1 UNL1     0.0332
     57 C         2.547476   0.486827   -3.164545 C.3        1 UNL1     -0.0567
     58 C         3.653515   -6.298764   -0.109416 C.3        1 UNL1     0.0210
     59 C         4.647027   -1.911702   -2.31016 C.3        1 UNL1     0.0372
     60 C         3.296331   -3.607434   -1.182434 C.2        1 UNL1     -0.0208
     61 C         4.580715   -3.461242   -0.854211 C.2        1 UNL1     0.0882
     62 H         4.013812   -1.772885   3.134947 H        1 UNL1     0.0365
     63 H         4.686185   -3.027994   4.598793 H        1 UNL1     0.0576
     64 H         3.891344   -2.003696   7.394472 H        1 UNL1     0.0615
     65 H         5.320525   -4.600194   6.407814 H        1 UNL1     0.0622
     66 H         2.279365   -3.679411   -2.993715 H        1 UNL1     0.0645
     67 H         0.357161   -3.033549   -2.370657 H        1 UNL1     0.0362
     68 H         0.674663   -1.051728   -3.258098 H        1 UNL1     0.0741
     69 H         1.129296   1.171121   -1.887464 H        1 UNL1     0.0359
     70 H         2.782405   1.374872   -0.395743 H        1 UNL1     0.0600
     71 H         1.500328   1.267648   1.350536 H        1 UNL1     0.0348
     72 H         3.21701   -0.284063   2.1103 H        1 UNL1     0.0602
     73 H         2.725267   -4.39327   -0.753954 H        1 UNL1     0.0628
     74 H         5.217766   -2.648024   -1.20361 H        1 UNL1     0.1022
     75 H         3.585193   -4.335165   10.119487 H        1 UNL1     0.0279
     76 H         4.135946   -5.954409   10.286885 H        1 UNL1     0.0279
     77 H         5.231511   -4.538945   10.554275 H        1 UNL1     0.0279
     78 H         3.284247   -6.94593   8.378561 H        1 UNL1     0.1553
     79 H         2.151204   -5.51619   7.605075 H        1 UNL1     0.1484
     80 H         -0.100377   -4.992612   4.58916 H        1 UNL1     0.0317
     81 H         0.715142   -6.515677   4.913394 H        1 UNL1     0.0317
     82 H         0.269568   -6.297627   7.372585 H        1 UNL1     0.0428
     83 H         -1.193351   -6.253614   6.413609 H        1 UNL1     0.0428
     84 H         0.324228   -2.508113   7.744516 H        1 UNL1     0.0428
     85 H         1.202992   -3.912581   8.238848 H        1 UNL1     0.0428
     86 H         2.105647   -2.641438   6.290962 H        1 UNL1     0.0317
     87 H         0.70148   -2.881791   5.356672 H        1 UNL1     0.0317
     88 H         -2.042866   -3.413007   8.292219 H        1 UNL1     0.0429
     89 H         -2.362133   -5.12886   8.027359 H        1 UNL1     0.0429
     90 H         0.178974   -4.464647   9.507584 H        1 UNL1     0.0308
     91 H         -2.524454   -4.135447   10.928297 H        1 UNL1     0.0233
     92 H         -0.897611   -3.930714   11.626123 H        1 UNL1     0.0233
     93 H         -1.511955   -2.772705   10.465864 H        1 UNL1     0.0233
     94 H         -0.531988   -6.381361   10.880736 H        1 UNL1     0.0233
     95 H         -2.02157   -6.493497   9.930525 H        1 UNL1     0.0233
     96 H         -0.447486   -6.774531   9.151248 H        1 UNL1     0.0233
     97 H         7.713074   -9.676899   1.845611 H        1 UNL1     0.0280
     98 H         6.50589   -9.371499   0.626338 H        1 UNL1     0.0280
     99 H         7.862356   -8.224892   0.838526 H        1 UNL1     0.0280
     100 H         7.562483   -9.623415   4.090739 H        1 UNL1     0.2922
     101 H         5.110182   0.301308   4.823674 H        1 UNL1     0.0236
     102 H         4.223285   1.046708   3.436643 H        1 UNL1     0.0236
     103 H         5.531646   -0.065888   3.180092 H        1 UNL1     0.0236
     104 H         2.660888   1.251416   3.670562 H        1 UNL1     0.2098
     105 H         0.224664   -1.420714   0.970508 H        1 UNL1     0.0234
     106 H         -0.446982   0.09888   1.626878 H        1 UNL1     0.0234
     107 H         -0.0   0.0   0.0 H        1 UNL1     0.0234
     108 H         3.387699   -1.376444   -0.357475 H        1 UNL1     0.2098
     109 H         -0.379454   -2.877975   -0.102344 H        1 UNL1     0.0234
     110 H         0.904547   -4.117128   -0.271584 H        1 UNL1     0.0234
     111 H         1.255096   -2.588359   0.455618 H        1 UNL1     0.0234
     112 H         -0.863725   -1.274828   0.485926 H        1 UNL1     0.0342
     113 H         -1.936196   0.060164   1.038953 H        1 UNL1     0.0342
     114 H         -2.571257   -1.228968   0.012889 H        1 UNL1     0.0342
     115 H         1.99048   0.240746   -4.079087 H        1 UNL1     0.0234
     116 H         2.911047   1.511202   -3.267123 H        1 UNL1     0.0234
     117 H         3.412964   -0.192184   -3.252949 H        1 UNL1     0.0234
     118 H         3.430219   -7.206056   0.478773 H        1 UNL1     0.0309
     119 H         2.736509   -5.712351   -0.225265 H        1 UNL1     0.0309
     120 H         3.888429   -6.693888   -1.103799 H        1 UNL1     0.0309
     121 H         4.730156   -1.093642   -1.59516 H        1 UNL1     0.0524
     122 H         4.913361   -2.842451   -1.782135 H        1 UNL1     0.0524
     123 H         5.340437   -1.76232   -3.132937 H        1 UNL1     0.0524
@<TRIPOS>BOND
     1     1     2    1
     2     1    42    1
     3     2     3    2
     4     3     4    1
     5     4     5    2
     6     5     7    1
     7     6    75    1
     8     6    76    1
     9     6    77    1
    10     7     9   am
    11     9    10    1
    12    10    11    2
    13    10    43    1
    14    11    14    1
    15    11    15    1
    16    12    13   ar
    17    12    27   ar
    18    12    43    1
    19    13    14    1
    20    13    30   ar
    21    14    17    2
    22    15    16    1
    23    16    17    1
    24    16    18    1
    25    16    22    1
    26    18    19    1
    27    19    20    1
    28    20    21    1
    29    21    22    1
    30    23    24    1
    31    23    88    1
    32    23    89    1
    33    24    25    1
    34    24    26    1
    35    24    90    1
    36    25    91    1
    37    25    92    1
    38    25    93    1
    39    26    94    1
    40    26    95    1
    41    26    96    1
    42    27    28   ar
    43    28    29   ar
    44    29    30   ar
    45    29    31    1
    46    30    33    1
    47    31    32    1
    48    32    33    1
    49    32    35    1
    50    34    97    1
    51    34    98    1
    52    34    99    1
    53    35    61    1
    54    36    37    1
    55    36    60    1
    56    37    38    1
    57    38    39    1
    58    39    40    1
    59    40    41    1
    60    41    42    1
    61    45   100    1
    62    47   101    1
    63    47   102    1
    64    47   103    1
    65    48   104    1
    66    49   105    1
    67    49   106    1
    68    49   107    1
    69    50   108    1
    70    51    59    1
    71    52   109    1
    72    52   110    1
    73    52   111    1
    74    53    54    1
    75    54    55    2
    76    54    56    1
    77    56   112    1
    78    56   113    1
    79    56   114    1
    80    57   115    1
    81    57   116    1
    82    57   117    1
    83    58   118    1
    84    58   119    1
    85    58   120    1
    86    59   121    1
    87    59   122    1
    88    59   123    1
    89    60    61    2
    90     1    47    1
    91     1    62    1
    92     2    63    1
    93     3    64    1
    94     4    65    1
    95     5     6    1
    96     7     8    2
    97     9    78    1
    98    15    79    1
    99    18    80    1
   100    18    81    1
   101    19    82    1
   102    19    83    1
   103    20    23    1
   104    21    84    1
   105    21    85    1
   106    22    86    1
   107    22    87    1
   108    27    45    1
   109    28    34    1
   110    32    58    1
   111    33    46    2
   112    36    51    1
   113    36    66    1
   114    37    52    1
   115    37    67    1
   116    38    53    1
   117    38    68    1
   118    42    48    1
   119    42    72    1
   120    43    44    2
   121    60    73    1
   122    61    74    1
   123    39    69    1
   124    39    57    1
   125    40    70    1
   126    40    50    1
   127    41    71    1
   128    41    49    1
