@<TRIPOS>MOLECULE
*****
 123 128 0 0 0
SMALL
GASTEIGER

@<TRIPOS>ATOM
     1 C         5.181687   1.716222   0.451632 C.3        1 UNL1     0.0009
     2 C         6.617583   2.51128   -0.410413 C.2        1 UNL1     -0.0787
     3 C         7.894115   2.40344   -1.084863 C.2        1 UNL1     -0.0649
     4 C         8.774236   3.631322   -1.849095 C.2        1 UNL1     -0.0542
     5 C         9.78955   3.915453   -2.795396 C.2        1 UNL1     0.0115
     6 C         10.907598   3.280961   -3.667584 C.3        1 UNL1     -0.0348
     7 C         9.890246   5.396835   -3.405606 C.2        1 UNL1     0.2441
     8 O         10.72205   6.21388   -3.035383 O.2        1 UNL1     -0.2702
     9 N         9.133215   5.606305   -4.571444 N.am        1 UNL1     -0.2772
     10 C         7.855254   6.00193   -4.249546 C.2        1 UNL1     0.1049
     11 C         7.00526   5.036614   -3.949718 C.2        1 UNL1     0.0801
     12 C         6.577181   7.61981   -2.833096 C.ar        1 UNL1     0.0753
     13 C         5.813985   6.497746   -2.378 C.ar        1 UNL1     0.0305
     14 C         5.917948   5.190016   -3.021495 C.2        1 UNL1     0.0924
     15 N         7.11816   3.706551   -4.10692 N.pl3        1 UNL1     -0.3170
     16 C         5.846676   3.116266   -3.782659 C.3        1 UNL1     0.1275
     17 N         5.223337   4.077581   -2.800291 N.2        1 UNL1     -0.2557
     18 C         4.985416   3.178321   -5.040467 C.3        1 UNL1     0.0016
     19 C         5.727946   2.487073   -6.172905 C.3        1 UNL1     0.0026
     20 N         5.991853   1.108028   -5.786101 N.3        1 UNL1     -0.3018
     21 C         6.7628   0.945184   -4.551804 C.3        1 UNL1     0.0026
     22 C         5.996395   1.642998   -3.426827 C.3        1 UNL1     0.0016
     23 C         6.423278   0.28339   -6.897176 C.3        1 UNL1     0.0012
     24 C         5.259406   0.039436   -7.870646 C.3        1 UNL1     -0.0339
     25 C         5.293328   1.028963   -9.046972 C.3        1 UNL1     -0.0615
     26 C         5.275809   -1.401192   -8.351378 C.3        1 UNL1     -0.0615
     27 C         6.384507   8.88989   -2.29468 C.ar        1 UNL1     0.1347
     28 C         5.433948   9.167589   -1.328569 C.ar        1 UNL1     0.0342
     29 C         4.728294   8.038645   -0.860914 C.ar        1 UNL1     0.1435
     30 C         4.935895   6.754204   -1.36523 C.ar        1 UNL1     0.0774
     31 O         3.694052   8.160683   -0.000416 O.3        1 UNL1     -0.4436
     32 C         2.963433   6.932287   -0.134992 C.3        1 UNL1     0.3143
     33 C         3.966535   5.931557   -0.67215 C.2        1 UNL1     0.2504
     34 C         4.999054   10.53745   -0.887605 C.3        1 UNL1     -0.0327
     35 O         2.609192   6.500594   1.184632 O.2        1 UNL1     -0.4528
     36 C         -0.648989   4.58869   0.814543 C.3        1 UNL1     0.0854
     37 C         -0.968718   3.328302   -0.078048 C.3        1 UNL1     0.0236
     38 C         -1.571896   2.072776   0.716669 C.3        1 UNL1     0.1131
     39 C         -0.840502   1.539778   2.014069 C.3        1 UNL1     0.0200
     40 C         0.81996   1.383542   2.043935 C.3        1 UNL1     0.0661
     41 C         1.76613   0.606141   0.870043 C.3        1 UNL1     0.0091
     42 C         3.47204   0.95647   0.293377 C.3        1 UNL1     0.0661
     43 C         7.517991   7.40368   -3.960227 C.2        1 UNL1     0.2131
     44 O         7.918641   8.297688   -4.683391 O.2        1 UNL1     -0.2851
     45 O         7.200229   9.918775   -2.760974 O.3        1 UNL1     -0.5056
     46 O         3.975647   4.728211   -0.538996 O.2        1 UNL1     -0.2836
     47 C         5.585317   1.287098   1.887917 C.3        1 UNL1     -0.0566
     48 O         3.91202   -0.457347   0.374951 O.3        1 UNL1     -0.3909
     49 C         0.921796   0.376455   -0.363585 C.3        1 UNL1     -0.0577
     50 O         1.430766   2.598278   2.430012 O.3        1 UNL1     -0.3910
     51 O         -0.764559   4.402647   2.207189 O.3        1 UNL1     -0.3753
     52 C         0.066582   3.158719   -1.237506 C.3        1 UNL1     -0.0564
     53 O         -2.187498   1.035901   -0.176779 O.3        1 UNL1     -0.4608
     54 C         -2.42798   -0.26861   0.167239 C.2        1 UNL1     0.3042
     55 O         -1.868443   -1.272299   -0.272494 O.2        1 UNL1     -0.2512
     56 C         -3.461524   -0.425327   1.2461 C.3        1 UNL1     0.0332
     57 C         -1.548335   2.215995   3.278931 C.3        1 UNL1     -0.0567
     58 C         1.882283   7.182148   -1.212124 C.3        1 UNL1     0.0210
     59 C         -1.064926   5.585161   2.946991 C.3        1 UNL1     0.0372
     60 C         0.682406   5.208666   0.573338 C.2        1 UNL1     -0.0208
     61 C         1.604206   5.63973   1.435436 C.2        1 UNL1     0.0882
     62 H         4.712773   2.703638   0.540179 H        1 UNL1     0.0365
     63 H         6.35891   3.566998   -0.30544 H        1 UNL1     0.0576
     64 H         8.343939   1.433193   -1.307095 H        1 UNL1     0.0615
     65 H         8.295533   4.550564   -1.500784 H        1 UNL1     0.0622
     66 H         -1.390943   5.339403   0.507982 H        1 UNL1     0.0645
     67 H         -1.836505   3.642035   -0.683916 H        1 UNL1     0.0362
     68 H         -2.51363   2.516505   1.074111 H        1 UNL1     0.0741
     69 H         -1.17719   0.531252   2.213886 H        1 UNL1     0.0359
     70 H         0.933628   0.724294   2.925713 H        1 UNL1     0.0600
     71 H         1.806088   -0.414415   1.298793 H        1 UNL1     0.0348
     72 H         3.376189   1.447346   1.272749 H        1 UNL1     0.0602
     73 H         0.794311   5.403035   -0.464422 H        1 UNL1     0.0628
     74 H         1.592793   5.431363   2.505805 H        1 UNL1     0.1022
     75 H         10.945991   2.175731   -3.512581 H        1 UNL1     0.0279
     76 H         10.786949   3.36229   -4.745498 H        1 UNL1     0.0279
     77 H         11.91689   3.579799   -3.348636 H        1 UNL1     0.0279
     78 H         9.061905   4.73571   -5.093992 H        1 UNL1     0.1553
     79 H         7.776301   3.272994   -4.728057 H        1 UNL1     0.1484
     80 H         4.022359   2.694034   -4.838591 H        1 UNL1     0.0317
     81 H         4.763635   4.215969   -5.312038 H        1 UNL1     0.0317
     82 H         6.66027   3.011815   -6.428502 H        1 UNL1     0.0428
     83 H         5.09693   2.544456   -7.06036 H        1 UNL1     0.0428
     84 H         6.878525   -0.097895   -4.241311 H        1 UNL1     0.0428
     85 H         7.794502   1.306309   -4.663592 H        1 UNL1     0.0428
     86 H         6.517537   1.39114   -2.521859 H        1 UNL1     0.0317
     87 H         5.014777   1.171987   -3.293893 H        1 UNL1     0.0317
     88 H         7.219119   0.81893   -7.43115 H        1 UNL1     0.0429
     89 H         6.852187   -0.664454   -6.547313 H        1 UNL1     0.0429
     90 H         4.310895   0.165774   -7.335316 H        1 UNL1     0.0308
     91 H         6.239949   0.966532   -9.592053 H        1 UNL1     0.0233
     92 H         4.468631   0.836812   -9.737307 H        1 UNL1     0.0233
     93 H         5.182403   2.070026   -8.720295 H        1 UNL1     0.0233
     94 H         4.574635   -1.529855   -9.183025 H        1 UNL1     0.0233
     95 H         6.275149   -1.664319   -8.709211 H        1 UNL1     0.0233
     96 H         4.993975   -2.091936   -7.551745 H        1 UNL1     0.0233
     97 H         4.208495   10.494382   -0.144375 H        1 UNL1     0.0280
     98 H         5.81796   11.102013   -0.422935 H        1 UNL1     0.0280
     99 H         4.625889   11.103727   -1.756612 H        1 UNL1     0.0280
     100 H         6.735809   10.671478   -3.082494 H        1 UNL1     0.2922
     101 H         4.723276   0.860101   2.399986 H        1 UNL1     0.0236
     102 H         6.045351   2.090682   2.46203 H        1 UNL1     0.0236
     103 H         6.336327   0.479537   1.883203 H        1 UNL1     0.0236
     104 H         4.336843   -0.58427   1.245805 H        1 UNL1     0.2098
     105 H         0.71096   1.275474   -0.937279 H        1 UNL1     0.0234
     106 H         1.281465   -0.415287   -1.02063 H        1 UNL1     0.0234
     107 H         0.0   -0.0   0.0 H        1 UNL1     0.0234
     108 H         1.23222   3.256197   1.736116 H        1 UNL1     0.2098
     109 H         1.093301   3.039374   -0.864255 H        1 UNL1     0.0234
     110 H         -0.175968   2.331757   -1.913558 H        1 UNL1     0.0234
     111 H         0.088913   4.04004   -1.892275 H        1 UNL1     0.0234
     112 H         -3.599291   -1.485731   1.478286 H        1 UNL1     0.0342
     113 H         -3.208358   0.140931   2.141143 H        1 UNL1     0.0342
     114 H         -4.41631   -0.037086   0.865553 H        1 UNL1     0.0342
     115 H         -2.619251   1.974743   3.325038 H        1 UNL1     0.0234
     116 H         -1.106972   1.935376   4.237315 H        1 UNL1     0.0234
     117 H         -1.58014   3.317977   3.228269 H        1 UNL1     0.0234
     118 H         0.987293   7.675733   -0.794543 H        1 UNL1     0.0309
     119 H         2.249509   7.765989   -2.06211 H        1 UNL1     0.0309
     120 H         1.484717   6.251862   -1.63238 H        1 UNL1     0.0309
     121 H         -0.240323   6.282703   2.802691 H        1 UNL1     0.0524
     122 H         -1.98405   6.079419   2.590681 H        1 UNL1     0.0524
     123 H         -1.177045   5.350347   4.001688 H        1 UNL1     0.0524
@<TRIPOS>BOND
     1     1     2    1
     2     1    42    1
     3     2     3    2
     4     3     4    1
     5     4     5    2
     6     5     7    1
     7     6    75    1
     8     6    76    1
     9     6    77    1
    10     7     9   am
    11     9    10    1
    12    10    11    2
    13    10    43    1
    14    11    14    1
    15    11    15    1
    16    12    13   ar
    17    12    27   ar
    18    12    43    1
    19    13    14    1
    20    13    30   ar
    21    14    17    2
    22    15    16    1
    23    16    17    1
    24    16    18    1
    25    16    22    1
    26    18    19    1
    27    19    20    1
    28    20    21    1
    29    21    22    1
    30    23    24    1
    31    23    88    1
    32    23    89    1
    33    24    25    1
    34    24    26    1
    35    24    90    1
    36    25    91    1
    37    25    92    1
    38    25    93    1
    39    26    94    1
    40    26    95    1
    41    26    96    1
    42    27    28   ar
    43    28    29   ar
    44    29    30   ar
    45    29    31    1
    46    30    33    1
    47    31    32    1
    48    32    33    1
    49    32    35    1
    50    34    97    1
    51    34    98    1
    52    34    99    1
    53    35    61    1
    54    36    37    1
    55    36    60    1
    56    37    38    1
    57    38    39    1
    58    39    40    1
    59    40    41    1
    60    41    42    1
    61    45   100    1
    62    47   101    1
    63    47   102    1
    64    47   103    1
    65    48   104    1
    66    49   105    1
    67    49   106    1
    68    49   107    1
    69    50   108    1
    70    51    59    1
    71    52   109    1
    72    52   110    1
    73    52   111    1
    74    53    54    1
    75    54    55    2
    76    54    56    1
    77    56   112    1
    78    56   113    1
    79    56   114    1
    80    57   115    1
    81    57   116    1
    82    57   117    1
    83    58   118    1
    84    58   119    1
    85    58   120    1
    86    59   121    1
    87    59   122    1
    88    59   123    1
    89    60    61    2
    90     1    47    1
    91     1    62    1
    92     2    63    1
    93     3    64    1
    94     4    65    1
    95     5     6    1
    96     7     8    2
    97     9    78    1
    98    15    79    1
    99    18    80    1
   100    18    81    1
   101    19    82    1
   102    19    83    1
   103    20    23    1
   104    21    84    1
   105    21    85    1
   106    22    86    1
   107    22    87    1
   108    27    45    1
   109    28    34    1
   110    32    58    1
   111    33    46    2
   112    36    51    1
   113    36    66    1
   114    37    52    1
   115    37    67    1
   116    38    53    1
   117    38    68    1
   118    42    48    1
   119    42    72    1
   120    43    44    2
   121    60    73    1
   122    61    74    1
   123    39    69    1
   124    39    57    1
   125    40    70    1
   126    40    50    1
   127    41    71    1
   128    41    49    1
