@<TRIPOS>MOLECULE
*****
 123 128 0 0 0
SMALL
GASTEIGER

@<TRIPOS>ATOM
     1 C         0.144767   3.189772   3.143427 C.3        1 UNL1     0.0009
     2 C         -1.240705   4.127627   3.942133 C.2        1 UNL1     -0.0787
     3 C         -1.963167   5.364585   4.151968 C.2        1 UNL1     -0.0649
     4 C         -3.401587   5.596089   5.014354 C.2        1 UNL1     -0.0542
     5 C         -4.512702   6.452865   5.210408 C.2        1 UNL1     0.0115
     6 C         -5.091825   7.855628   4.878448 C.3        1 UNL1     -0.0348
     7 C         -5.823511   5.872234   5.932652 C.2        1 UNL1     0.2441
     8 O         -6.09448   6.100668   7.103514 O.2        1 UNL1     -0.2702
     9 N         -6.770839   5.302396   5.064317 N.am        1 UNL1     -0.2772
     10 C         -6.493447   3.970501   4.858332 C.2        1 UNL1     0.1049
     11 C         -5.584894   3.700667   3.938581 C.2        1 UNL1     0.0801
     12 C         -5.958065   1.846069   6.065598 C.ar        1 UNL1     0.0753
     13 C         -4.852434   1.706254   5.167466 C.ar        1 UNL1     0.0305
     14 C         -4.708897   2.561723   3.991617 C.2        1 UNL1     0.0924
     15 N         -5.027778   4.501137   3.013703 N.pl3        1 UNL1     -0.3170
     16 C         -4.225499   3.679231   2.147059 C.3        1 UNL1     0.1275
     17 N         -3.814184   2.510543   3.008867 N.2        1 UNL1     -0.2557
     18 C         -5.152732   3.110766   1.07711 C.3        1 UNL1     0.0016
     19 C         -5.85263   4.264747   0.377066 C.3        1 UNL1     0.0026
     20 N         -4.844454   5.13518   -0.211963 N.3        1 UNL1     -0.3018
     21 C         -3.867544   5.682489   0.731683 C.3        1 UNL1     0.0026
     22 C         -3.173199   4.506098   1.420077 C.3        1 UNL1     0.0016
     23 C         -5.401996   6.091226   -1.147787 C.3        1 UNL1     0.0012
     24 C         -5.878519   5.38039   -2.424265 C.3        1 UNL1     -0.0339
     25 C         -5.681084   6.263913   -3.667029 C.3        1 UNL1     -0.0615
     26 C         -5.172145   4.043833   -2.570655 C.3        1 UNL1     -0.0615
     27 C         -6.153401   0.950878   7.11469 C.ar        1 UNL1     0.1347
     28 C         -5.335677   -0.141879   7.341097 C.ar        1 UNL1     0.0342
     29 C         -4.225915   -0.231438   6.474165 C.ar        1 UNL1     0.1435
     30 C         -3.997247   0.678538   5.441269 C.ar        1 UNL1     0.0774
     31 O         -3.398575   -1.299155   6.496447 O.3        1 UNL1     -0.4436
     32 C         -2.731029   -1.267259   5.22592 C.3        1 UNL1     0.3143
     33 C         -2.81781   0.174905   4.768923 C.2        1 UNL1     0.2504
     34 C         -5.623022   -1.2781   8.282657 C.3        1 UNL1     -0.0327
     35 O         -1.3461   -1.546435   5.465257 O.2        1 UNL1     -0.4528
     36 C         -0.073938   -3.265359   2.329178 C.3        1 UNL1     0.0854
     37 C         -0.088936   -2.754402   0.837126 C.3        1 UNL1     0.0236
     38 C         1.341619   -2.742275   0.112482 C.3        1 UNL1     0.1131
     39 C         2.574438   -2.048452   0.820321 C.3        1 UNL1     0.0200
     40 C         2.395425   -0.569319   1.570361 C.3        1 UNL1     0.0661
     41 C         1.67177   0.807233   0.892838 C.3        1 UNL1     0.0091
     42 C         0.712691   2.157663   1.681451 C.3        1 UNL1     0.0661
     43 C         -6.940355   2.923555   5.789209 C.2        1 UNL1     0.2131
     44 O         -8.084432   2.914463   6.206032 O.2        1 UNL1     -0.2851
     45 O         -7.227864   1.184514   7.970483 O.3        1 UNL1     -0.5056
     46 O         -2.069347   0.778568   4.033227 O.2        1 UNL1     -0.2836
     47 C         1.49416   3.532196   3.830353 C.3        1 UNL1     -0.0566
     48 O         1.455828   3.241189   0.993819 O.3        1 UNL1     -0.3909
     49 C         0.916735   0.398795   -0.352391 C.3        1 UNL1     -0.0577
     50 O         1.96439   -0.733771   2.906358 O.3        1 UNL1     -0.3910
     51 O         1.199746   -3.479681   2.89418 O.3        1 UNL1     -0.3753
     52 C         -1.139097   -1.615956   0.622524 C.3        1 UNL1     -0.0564
     53 O         1.258212   -2.595761   -1.378794 O.3        1 UNL1     -0.4608
     54 C         2.303323   -2.74659   -2.252249 C.2        1 UNL1     0.3042
     55 O         2.942836   -1.857164   -2.812411 O.2        1 UNL1     -0.2512
     56 C         2.704202   -4.178042   -2.468938 C.3        1 UNL1     0.0332
     57 C         3.386143   -3.185553   1.598981 C.3        1 UNL1     -0.0567
     58 C         -3.570281   -2.145271   4.268694 C.3        1 UNL1     0.0210
     59 C         1.188043   -3.887326   4.261496 C.3        1 UNL1     0.0372
     60 C         -0.833474   -2.42065   3.290808 C.2        1 UNL1     -0.0208
     61 C         -0.506946   -1.99332   4.511264 C.2        1 UNL1     0.0882
     62 H         -0.225654   2.274259   3.620223 H        1 UNL1     0.0365
     63 H         -1.670126   3.352365   4.580127 H        1 UNL1     0.0576
     64 H         -1.70943   6.275509   3.605211 H        1 UNL1     0.0615
     65 H         -3.518674   4.667688   5.579902 H        1 UNL1     0.0622
     66 H         -0.599017   -4.230358   2.295757 H        1 UNL1     0.0645
     67 H         -0.608206   -3.556459   0.284294 H        1 UNL1     0.0362
     68 H         1.564837   -3.819983   0.128036 H        1 UNL1     0.0741
     69 H         3.334358   -1.847018   0.077116 H        1 UNL1     0.0359
     70 H         3.457406   -0.269802   1.65723 H        1 UNL1     0.0600
     71 H         2.562864   1.298391   0.455034 H        1 UNL1     0.0348
     72 H         1.280461   1.67625   2.490891 H        1 UNL1     0.0602
     73 H         -1.816666   -2.267688   2.920425 H        1 UNL1     0.0628
     74 H         0.493368   -2.059125   4.94054 H        1 UNL1     0.1022
     75 H         -4.323244   8.647522   5.049389 H        1 UNL1     0.0279
     76 H         -5.380686   8.028889   3.844229 H        1 UNL1     0.0279
     77 H         -5.882004   8.165862   5.577785 H        1 UNL1     0.0279
     78 H         -6.729085   5.767443   4.159847 H        1 UNL1     0.1553
     79 H         -5.426081   5.374023   2.719838 H        1 UNL1     0.1484
     80 H         -4.561558   2.513929   0.372082 H        1 UNL1     0.0317
     81 H         -5.891165   2.433236   1.519061 H        1 UNL1     0.0317
     82 H         -6.504546   4.823061   1.064964 H        1 UNL1     0.0428
     83 H         -6.510041   3.836961   -0.38047 H        1 UNL1     0.0428
     84 H         -3.075629   6.267224   0.253387 H        1 UNL1     0.0428
     85 H         -4.330406   6.386717   1.436763 H        1 UNL1     0.0428
     86 H         -2.378917   4.937926   2.000273 H        1 UNL1     0.0317
     87 H         -2.643045   3.897263   0.677546 H        1 UNL1     0.0317
     88 H         -6.266916   6.57099   -0.671306 H        1 UNL1     0.0429
     89 H         -4.682153   6.885951   -1.382335 H        1 UNL1     0.0429
     90 H         -6.945387   5.146379   -2.328114 H        1 UNL1     0.0308
     91 H         -4.687219   6.721357   -3.675993 H        1 UNL1     0.0233
     92 H         -5.815692   5.680668   -4.580984 H        1 UNL1     0.0233
     93 H         -6.408734   7.082974   -3.717016 H        1 UNL1     0.0233
     94 H         -5.193465   3.717877   -3.616186 H        1 UNL1     0.0233
     95 H         -4.125437   4.139352   -2.268594 H        1 UNL1     0.0233
     96 H         -5.647228   3.272229   -1.958371 H        1 UNL1     0.0233
     97 H         -5.551931   -0.973459   9.322546 H        1 UNL1     0.0280
     98 H         -6.638553   -1.675008   8.154526 H        1 UNL1     0.0280
     99 H         -4.899566   -2.091825   8.110727 H        1 UNL1     0.0280
     100 H         -7.287176   2.066747   8.292616 H        1 UNL1     0.2922
     101 H         1.79907   2.707034   4.473621 H        1 UNL1     0.0236
     102 H         1.474448   4.481517   4.364566 H        1 UNL1     0.0236
     103 H         2.315085   3.636918   3.101444 H        1 UNL1     0.0236
     104 H         2.382126   2.946251   0.89405 H        1 UNL1     0.2098
     105 H         0.685232   1.219487   -1.026692 H        1 UNL1     0.0234
     106 H         1.362018   -0.429143   -0.903906 H        1 UNL1     0.0234
     107 H         0.0   -0.0   0.0 H        1 UNL1     0.0234
     108 H         1.594235   0.12125   3.199089 H        1 UNL1     0.2098
     109 H         -0.805966   -0.87726   -0.119813 H        1 UNL1     0.0234
     110 H         -2.13043   -1.991284   0.346607 H        1 UNL1     0.0234
     111 H         -1.316561   -1.049607   1.546484 H        1 UNL1     0.0234
     112 H         3.553502   -4.22657   -3.157183 H        1 UNL1     0.0342
     113 H         2.930437   -4.686194   -1.532753 H        1 UNL1     0.0342
     114 H         1.860618   -4.703429   -2.937445 H        1 UNL1     0.0342
     115 H         3.726781   -3.980713   0.921579 H        1 UNL1     0.0234
     116 H         4.260855   -2.816409   2.138109 H        1 UNL1     0.0234
     117 H         2.766613   -3.760818   2.308343 H        1 UNL1     0.0234
     118 H         -3.366276   -1.914581   3.208425 H        1 UNL1     0.0309
     119 H         -3.429715   -3.217972   4.435294 H        1 UNL1     0.0309
     120 H         -4.646055   -1.961916   4.364598 H        1 UNL1     0.0309
     121 H         2.135547   -3.582047   4.704664 H        1 UNL1     0.0524
     122 H         0.381326   -3.402148   4.83582 H        1 UNL1     0.0524
     123 H         1.071545   -4.965119   4.33138 H        1 UNL1     0.0524
@<TRIPOS>BOND
     1     1     2    1
     2     1    42    1
     3     2     3    2
     4     3     4    1
     5     4     5    2
     6     5     7    1
     7     6    75    1
     8     6    76    1
     9     6    77    1
    10     7     9   am
    11     9    10    1
    12    10    11    2
    13    10    43    1
    14    11    14    1
    15    11    15    1
    16    12    13   ar
    17    12    27   ar
    18    12    43    1
    19    13    14    1
    20    13    30   ar
    21    14    17    2
    22    15    16    1
    23    16    17    1
    24    16    18    1
    25    16    22    1
    26    18    19    1
    27    19    20    1
    28    20    21    1
    29    21    22    1
    30    23    24    1
    31    23    88    1
    32    23    89    1
    33    24    25    1
    34    24    26    1
    35    24    90    1
    36    25    91    1
    37    25    92    1
    38    25    93    1
    39    26    94    1
    40    26    95    1
    41    26    96    1
    42    27    28   ar
    43    28    29   ar
    44    29    30   ar
    45    29    31    1
    46    30    33    1
    47    31    32    1
    48    32    33    1
    49    32    35    1
    50    34    97    1
    51    34    98    1
    52    34    99    1
    53    35    61    1
    54    36    37    1
    55    36    60    1
    56    37    38    1
    57    38    39    1
    58    39    40    1
    59    40    41    1
    60    41    42    1
    61    45   100    1
    62    47   101    1
    63    47   102    1
    64    47   103    1
    65    48   104    1
    66    49   105    1
    67    49   106    1
    68    49   107    1
    69    50   108    1
    70    51    59    1
    71    52   109    1
    72    52   110    1
    73    52   111    1
    74    53    54    1
    75    54    55    2
    76    54    56    1
    77    56   112    1
    78    56   113    1
    79    56   114    1
    80    57   115    1
    81    57   116    1
    82    57   117    1
    83    58   118    1
    84    58   119    1
    85    58   120    1
    86    59   121    1
    87    59   122    1
    88    59   123    1
    89    60    61    2
    90     1    47    1
    91     1    62    1
    92     2    63    1
    93     3    64    1
    94     4    65    1
    95     5     6    1
    96     7     8    2
    97     9    78    1
    98    15    79    1
    99    18    80    1
   100    18    81    1
   101    19    82    1
   102    19    83    1
   103    20    23    1
   104    21    84    1
   105    21    85    1
   106    22    86    1
   107    22    87    1
   108    27    45    1
   109    28    34    1
   110    32    58    1
   111    33    46    2
   112    36    51    1
   113    36    66    1
   114    37    52    1
   115    37    67    1
   116    38    53    1
   117    38    68    1
   118    42    48    1
   119    42    72    1
   120    43    44    2
   121    60    73    1
   122    61    74    1
   123    39    69    1
   124    39    57    1
   125    40    70    1
   126    40    50    1
   127    41    71    1
   128    41    49    1
