@<TRIPOS>MOLECULE
*****
 123 128 0 0 0
SMALL
GASTEIGER

@<TRIPOS>ATOM
     1 C         2.062104   -4.988168   -0.845473 C.3        1 UNL1     0.0009
     2 C         1.722878   -6.720172   -1.413032 C.2        1 UNL1     -0.0787
     3 C         1.415546   -8.102769   -1.113001 C.2        1 UNL1     -0.0649
     4 C         1.067417   -9.351363   -2.202119 C.2        1 UNL1     -0.0542
     5 C         0.474029   -10.628991   -2.35257 C.2        1 UNL1     0.0115
     6 C         -0.125956   -11.834879   -1.578506 C.3        1 UNL1     -0.0348
     7 C         0.088914   -11.138109   -3.825483 C.2        1 UNL1     0.2441
     8 O         0.763793   -11.946801   -4.447642 O.2        1 UNL1     -0.2702
     9 N         -1.207456   -10.794854   -4.247089 N.am        1 UNL1     -0.2772
     10 C         -1.204156   -9.559106   -4.852266 C.2        1 UNL1     0.1049
     11 C         -1.261141   -8.515484   -4.044908 C.2        1 UNL1     0.0801
     12 C         -0.015263   -8.202235   -6.585116 C.ar        1 UNL1     0.0753
     13 C         0.081775   -7.170443   -5.597899 C.ar        1 UNL1     0.0305
     14 C         -0.654473   -7.245272   -4.337982 C.2        1 UNL1     0.0924
     15 N         -1.533103   -8.454369   -2.730058 N.pl3        1 UNL1     -0.3170
     16 C         -1.638976   -7.066038   -2.367317 C.3        1 UNL1     0.1275
     17 N         -0.760937   -6.347464   -3.362517 N.2        1 UNL1     -0.2557
     18 C         -3.068611   -6.627428   -2.669752 C.3        1 UNL1     0.0016
     19 C         -4.026358   -7.545211   -1.926796 C.3        1 UNL1     0.0026
     20 N         -3.743122   -7.461236   -0.500698 N.3        1 UNL1     -0.3018
     21 C         -2.372213   -7.805275   -0.117794 C.3        1 UNL1     0.0026
     22 C         -1.427368   -6.868175   -0.872118 C.3        1 UNL1     0.0016
     23 C         -4.780873   -8.05788   0.31645 C.3        1 UNL1     0.0012
     24 C         -4.164085   -8.965224   1.392581 C.3        1 UNL1     -0.0339
     25 C         -3.708243   -8.155207   2.617381 C.3        1 UNL1     -0.0615
     26 C         -5.146559   -10.057218   1.778684 C.3        1 UNL1     -0.0615
     27 C         0.59205   -8.068085   -7.831428 C.ar        1 UNL1     0.1347
     28 C         1.286575   -6.935871   -8.218438 C.ar        1 UNL1     0.0342
     29 C         1.410555   -5.95364   -7.212946 C.ar        1 UNL1     0.1435
     30 C         0.838242   -6.089702   -5.947575 C.ar        1 UNL1     0.0774
     31 O         1.96346   -4.74809   -7.469755 O.3        1 UNL1     -0.4436
     32 C         1.494067   -3.900727   -6.410265 C.3        1 UNL1     0.3143
     33 C         1.140542   -4.842447   -5.276953 C.2        1 UNL1     0.2504
     34 C         1.746028   -6.617356   -9.613985 C.3        1 UNL1     -0.0327
     35 O         2.607842   -3.115184   -5.967908 O.2        1 UNL1     -0.4528
     36 C         1.143743   0.158682   -4.724404 C.3        1 UNL1     0.0854
     37 C         0.059162   0.403964   -3.605904 C.3        1 UNL1     0.0236
     38 C         0.508977   1.404476   -2.436123 C.3        1 UNL1     0.1131
     39 C         1.886829   1.175356   -1.693628 C.3        1 UNL1     0.0200
     40 C         2.351566   -0.357861   -1.229188 C.3        1 UNL1     0.0661
     41 C         1.400037   -1.466005   -0.366505 C.3        1 UNL1     0.0091
     42 C         1.356133   -3.298906   -0.42935 C.3        1 UNL1     0.0661
     43 C         -0.859158   -9.381737   -6.27067 C.2        1 UNL1     0.2131
     44 O         -1.337543   -10.112475   -7.119144 O.2        1 UNL1     -0.2851
     45 O         0.487986   -9.137752   -8.718232 O.3        1 UNL1     -0.5056
     46 O         1.13203   -4.619633   -4.086938 O.2        1 UNL1     -0.2836
     47 C         3.494871   -4.884428   -0.256916 C.3        1 UNL1     -0.0566
     48 O         1.392043   -3.463884   1.043949 O.3        1 UNL1     -0.3909
     49 C         -0.035374   -0.989608   -0.378212 C.3        1 UNL1     -0.0577
     50 O         3.026801   -1.017154   -2.281382 O.3        1 UNL1     -0.3910
     51 O         2.420737   0.700774   -4.473699 O.3        1 UNL1     -0.3753
     52 C         -0.784417   -0.881524   -3.321573 C.3        1 UNL1     -0.0564
     53 O         -0.631684   1.892889   -1.591925 O.3        1 UNL1     -0.4608
     54 C         -0.669073   3.086285   -0.919364 C.2        1 UNL1     0.3042
     55 O         -0.953686   4.192591   -1.376443 O.2        1 UNL1     -0.2512
     56 C         -0.374581   2.95901   0.548216 C.3        1 UNL1     0.0332
     57 C         2.978804   2.101147   -2.406842 C.3        1 UNL1     -0.0567
     58 C         0.198398   -3.232404   -6.92613 C.3        1 UNL1     0.0210
     59 C         2.56812   1.3223   -3.197828 C.3        1 UNL1     0.0372
     60 C         1.348729   -1.266895   -5.099734 C.2        1 UNL1     -0.0208
     61 C         2.473641   -1.956238   -5.294989 C.2        1 UNL1     0.0882
     62 H         2.131787   -4.678291   -1.895155 H        1 UNL1     0.0365
     63 H         1.873592   -6.61488   -2.489447 H        1 UNL1     0.0576
     64 H         1.214946   -8.43609   -0.092332 H        1 UNL1     0.0615
     65 H         1.374667   -8.946111   -3.170031 H        1 UNL1     0.0622
     66 H         0.734243   0.649755   -5.618386 H        1 UNL1     0.0645
     67 H         -0.720764   0.997155   -4.114234 H        1 UNL1     0.0362
     68 H         0.643705   2.325522   -3.023528 H        1 UNL1     0.0741
     69 H         1.869768   1.712562   -0.754731 H        1 UNL1     0.0359
     70 H         3.149052   -0.104163   -0.504817 H        1 UNL1     0.0600
     71 H         1.70324   -1.21601   0.669124 H        1 UNL1     0.0348
     72 H         2.321571   -3.003568   -0.865265 H        1 UNL1     0.0602
     73 H         0.410601   -1.704111   -5.336389 H        1 UNL1     0.0628
     74 H         3.468789   -1.602166   -5.023785 H        1 UNL1     0.1022
     75 H         -0.092558   -12.758674   -2.205022 H        1 UNL1     0.0279
     76 H         0.400092   -12.143479   -0.677891 H        1 UNL1     0.0279
     77 H         -1.206628   -11.731667   -1.40188 H        1 UNL1     0.0279
     78 H         -1.825949   -10.739326   -3.440577 H        1 UNL1     0.1553
     79 H         -1.996056   -9.18578   -2.22247 H        1 UNL1     0.1484
     80 H         -3.194831   -5.582568   -2.361365 H        1 UNL1     0.0317
     81 H         -3.269477   -6.663075   -3.745872 H        1 UNL1     0.0317
     82 H         -3.9552   -8.583107   -2.284036 H        1 UNL1     0.0428
     83 H         -5.03987   -7.215893   -2.157863 H        1 UNL1     0.0428
     84 H         -2.163807   -7.657408   0.946402 H        1 UNL1     0.0428
     85 H         -2.155325   -8.86909   -0.286837 H        1 UNL1     0.0428
     86 H         -0.449511   -7.057571   -0.469732 H        1 UNL1     0.0317
     87 H         -1.62298   -5.827889   -0.58465 H        1 UNL1     0.0317
     88 H         -5.330721   -7.248751   0.814719 H        1 UNL1     0.0429
     89 H         -5.50516   -8.608142   -0.297873 H        1 UNL1     0.0429
     90 H         -3.293142   -9.481176   0.971315 H        1 UNL1     0.0308
     91 H         -2.756888   -8.527665   3.008919 H        1 UNL1     0.0233
     92 H         -3.602302   -7.097859   2.363611 H        1 UNL1     0.0233
     93 H         -4.431022   -8.201078   3.440983 H        1 UNL1     0.0233
     94 H         -4.738908   -10.659769   2.597579 H        1 UNL1     0.0233
     95 H         -6.084287   -9.611687   2.122386 H        1 UNL1     0.0233
     96 H         -5.358901   -10.719571   0.934784 H        1 UNL1     0.0233
     97 H         2.591977   -7.228617   -9.91392 H        1 UNL1     0.0280
     98 H         0.962151   -6.802215   -10.360054 H        1 UNL1     0.0280
     99 H         2.047408   -5.558558   -9.670661 H        1 UNL1     0.0280
     100 H         0.354823   -8.890214   -9.616349 H        1 UNL1     0.2922
     101 H         3.441542   -4.804947   0.828669 H        1 UNL1     0.0236
     102 H         4.082044   -4.079429   -0.697582 H        1 UNL1     0.0236
     103 H         4.0857   -5.797035   -0.442019 H        1 UNL1     0.0236
     104 H         2.213078   -3.044368   1.367798 H        1 UNL1     0.2098
     105 H         -0.488163   -0.952351   -1.365838 H        1 UNL1     0.0234
     106 H         -0.692921   -1.508003   0.319517 H        1 UNL1     0.0234
     107 H         0.0   0.0   0.0 H        1 UNL1     0.0234
     108 H         3.786753   -0.458067   -2.533696 H        1 UNL1     0.2098
     109 H         -1.151518   -0.91763   -2.28637 H        1 UNL1     0.0234
     110 H         -1.624759   -1.006499   -4.012912 H        1 UNL1     0.0234
     111 H         -0.189464   -1.794416   -3.457973 H        1 UNL1     0.0234
     112 H         -0.060914   1.93608   0.777506 H        1 UNL1     0.0342
     113 H         0.370879   3.679987   0.880366 H        1 UNL1     0.0342
     114 H         -1.301655   3.1593   1.102816 H        1 UNL1     0.0342
     115 H         3.94033   1.582511   -2.523773 H        1 UNL1     0.0234
     116 H         2.678786   2.462747   -3.392379 H        1 UNL1     0.0234
     117 H         3.279394   2.973286   -1.801069 H        1 UNL1     0.0234
     118 H         -0.391735   -2.785037   -6.107221 H        1 UNL1     0.0309
     119 H         0.382635   -2.471982   -7.691647 H        1 UNL1     0.0309
     120 H         -0.495954   -3.951644   -7.374098 H        1 UNL1     0.0309
     121 H         1.720395   1.992425   -3.057644 H        1 UNL1     0.0524
     122 H         2.553579   0.591402   -2.372229 H        1 UNL1     0.0524
     123 H         3.498614   1.88144   -3.157373 H        1 UNL1     0.0524
@<TRIPOS>BOND
     1     1     2    1
     2     1    42    1
     3     2     3    2
     4     3     4    1
     5     4     5    2
     6     5     7    1
     7     6    75    1
     8     6    76    1
     9     6    77    1
    10     7     9   am
    11     9    10    1
    12    10    11    2
    13    10    43    1
    14    11    14    1
    15    11    15    1
    16    12    13   ar
    17    12    27   ar
    18    12    43    1
    19    13    14    1
    20    13    30   ar
    21    14    17    2
    22    15    16    1
    23    16    17    1
    24    16    18    1
    25    16    22    1
    26    18    19    1
    27    19    20    1
    28    20    21    1
    29    21    22    1
    30    23    24    1
    31    23    88    1
    32    23    89    1
    33    24    25    1
    34    24    26    1
    35    24    90    1
    36    25    91    1
    37    25    92    1
    38    25    93    1
    39    26    94    1
    40    26    95    1
    41    26    96    1
    42    27    28   ar
    43    28    29   ar
    44    29    30   ar
    45    29    31    1
    46    30    33    1
    47    31    32    1
    48    32    33    1
    49    32    35    1
    50    34    97    1
    51    34    98    1
    52    34    99    1
    53    35    61    1
    54    36    37    1
    55    36    60    1
    56    37    38    1
    57    38    39    1
    58    39    40    1
    59    40    41    1
    60    41    42    1
    61    45   100    1
    62    47   101    1
    63    47   102    1
    64    47   103    1
    65    48   104    1
    66    49   105    1
    67    49   106    1
    68    49   107    1
    69    50   108    1
    70    51    59    1
    71    52   109    1
    72    52   110    1
    73    52   111    1
    74    53    54    1
    75    54    55    2
    76    54    56    1
    77    56   112    1
    78    56   113    1
    79    56   114    1
    80    57   115    1
    81    57   116    1
    82    57   117    1
    83    58   118    1
    84    58   119    1
    85    58   120    1
    86    59   121    1
    87    59   122    1
    88    59   123    1
    89    60    61    2
    90     1    47    1
    91     1    62    1
    92     2    63    1
    93     3    64    1
    94     4    65    1
    95     5     6    1
    96     7     8    2
    97     9    78    1
    98    15    79    1
    99    18    80    1
   100    18    81    1
   101    19    82    1
   102    19    83    1
   103    20    23    1
   104    21    84    1
   105    21    85    1
   106    22    86    1
   107    22    87    1
   108    27    45    1
   109    28    34    1
   110    32    58    1
   111    33    46    2
   112    36    51    1
   113    36    66    1
   114    37    52    1
   115    37    67    1
   116    38    53    1
   117    38    68    1
   118    42    48    1
   119    42    72    1
   120    43    44    2
   121    60    73    1
   122    61    74    1
   123    39    69    1
   124    39    57    1
   125    40    70    1
   126    40    50    1
   127    41    71    1
   128    41    49    1
