@<TRIPOS>MOLECULE
*****
 123 128 0 0 0
SMALL
GASTEIGER

@<TRIPOS>ATOM
     1 C         5.166729   1.750101   0.491249 C.3        1 UNL1     0.0009
     2 C         6.603   2.55713   -0.358968 C.2        1 UNL1     -0.0787
     3 C         7.884775   2.459713   -1.025006 C.2        1 UNL1     -0.0649
     4 C         8.761693   3.695532   -1.780071 C.2        1 UNL1     -0.0542
     5 C         9.781442   3.98902   -2.718717 C.2        1 UNL1     0.0115
     6 C         10.909659   3.36441   -3.584922 C.3        1 UNL1     -0.0348
     7 C         9.876204   5.472647   -3.324406 C.2        1 UNL1     0.2441
     8 O         10.699911   6.294335   -2.946433 O.2        1 UNL1     -0.2702
     9 N         9.125685   5.680044   -4.494815 N.am        1 UNL1     -0.2772
     10 C         7.842914   6.066154   -4.180586 C.2        1 UNL1     0.1049
     11 C         6.997485   5.094317   -3.889031 C.2        1 UNL1     0.0801
     12 C         6.544311   7.671612   -2.768684 C.ar        1 UNL1     0.0753
     13 C         5.785689   6.543211   -2.321678 C.ar        1 UNL1     0.0305
     14 C         5.902892   5.23791   -2.967823 C.2        1 UNL1     0.0924
     15 N         7.120481   3.765466   -4.048893 N.pl3        1 UNL1     -0.3170
     16 C         5.850868   3.16573   -3.734801 C.3        1 UNL1     0.1275
     17 N         5.214371   4.120217   -2.754215 N.2        1 UNL1     -0.2557
     18 C         4.997749   3.22525   -4.998267 C.3        1 UNL1     0.0016
     19 C         5.752614   2.542025   -6.127414 C.3        1 UNL1     0.0026
     20 N         6.023256   1.163789   -5.742385 N.3        1 UNL1     -0.3018
     21 C         6.78691   1.002932   -4.503302 C.3        1 UNL1     0.0026
     22 C         6.008177   1.692582   -3.381761 C.3        1 UNL1     0.0016
     23 C         6.467792   0.345013   -6.852626 C.3        1 UNL1     0.0012
     24 C         5.312227   0.095735   -7.834607 C.3        1 UNL1     -0.0339
     25 C         5.347395   1.088554   -9.008119 C.3        1 UNL1     -0.0615
     26 C         5.341673   -1.343481   -8.31893 C.3        1 UNL1     -0.0615
     27 C         6.33937   8.938939   -2.228315 C.ar        1 UNL1     0.1347
     28 C         5.380422   9.207654   -1.26797 C.ar        1 UNL1     0.0342
     29 C         4.679301   8.07273   -0.808034 C.ar        1 UNL1     0.1435
     30 C         4.899035   6.791054   -1.314239 C.ar        1 UNL1     0.0774
     31 O         3.638447   8.185499   0.04573 O.3        1 UNL1     -0.4436
     32 C         2.917118   6.952538   -0.096974 C.3        1 UNL1     0.3143
     33 C         3.930612   5.960041   -0.629886 C.2        1 UNL1     0.2504
     34 C         4.933254   10.573374   -0.82644 C.3        1 UNL1     -0.0327
     35 O         2.556885   6.514992   1.219095 O.2        1 UNL1     -0.4528
     36 C         -0.685651   4.582033   0.821949 C.3        1 UNL1     0.0854
     37 C         -0.990755   3.321855   -0.076041 C.3        1 UNL1     0.0236
     38 C         -1.590761   2.060189   0.711318 C.3        1 UNL1     0.1131
     39 C         -0.864571   1.528754   2.012277 C.3        1 UNL1     0.0200
     40 C         0.796674   1.383695   2.05302 C.3        1 UNL1     0.0661
     41 C         1.756036   0.615808   0.883582 C.3        1 UNL1     0.0091
     42 C         3.463395   0.9792   0.319424 C.3        1 UNL1     0.0661
     43 C         7.494183   7.464822   -3.889951 C.2        1 UNL1     0.2131
     44 O         7.893642   8.36342   -4.608068 O.2        1 UNL1     -0.2851
     45 O         7.151224   9.974549   -2.686401 O.3        1 UNL1     -0.5056
     46 O         3.946996   4.756439   -0.499776 O.2        1 UNL1     -0.2836
     47 C         5.563524   1.319952   1.929132 C.3        1 UNL1     -0.0566
     48 O         3.912407   -0.431813   0.400338 O.3        1 UNL1     -0.3909
     49 C         0.92166   0.383646   -0.356342 C.3        1 UNL1     -0.0577
     50 O         1.396583   2.601524   2.446369 O.3        1 UNL1     -0.3910
     51 O         -0.809388   4.391556   2.213293 O.3        1 UNL1     -0.3753
     52 C         0.053506   3.162336   -1.228873 C.3        1 UNL1     -0.0564
     53 O         -2.193237   1.021516   -0.188964 O.3        1 UNL1     -0.4608
     54 C         -2.427177   -0.285493   0.150047 C.2        1 UNL1     0.3042
     55 O         -1.857867   -1.28421   -0.288462 O.2        1 UNL1     -0.2512
     56 C         -3.466919   -0.452042   1.221454 C.3        1 UNL1     0.0332
     57 C         -1.585536   2.196837   3.274042 C.3        1 UNL1     -0.0567
     58 C         1.841619   7.197894   -1.180778 C.3        1 UNL1     0.0210
     59 C         -1.122787   5.57006   2.954085 C.3        1 UNL1     0.0372
     60 C         0.643105   5.211647   0.591395 C.2        1 UNL1     -0.0208
     61 C         1.556093   5.646682   1.460844 C.2        1 UNL1     0.0882
     62 H         4.690529   2.734081   0.579155 H        1 UNL1     0.0365
     63 H         6.336455   3.610791   -0.253031 H        1 UNL1     0.0576
     64 H         8.342676   1.493123   -1.246679 H        1 UNL1     0.0615
     65 H         8.274407   4.610592   -1.43265 H        1 UNL1     0.0622
     66 H         -1.430594   5.328504   0.512292 H        1 UNL1     0.0645
     67 H         -1.856528   3.631291   -0.68698 H        1 UNL1     0.0362
     68 H         -2.537888   2.496587   1.063497 H        1 UNL1     0.0741
     69 H         -1.195745   0.51745   2.2072 H        1 UNL1     0.0359
     70 H         0.90884   0.72292   2.933846 H        1 UNL1     0.0600
     71 H         1.80002   -0.405576   1.30996 H        1 UNL1     0.0348
     72 H         3.357577   1.466842   1.299385 H        1 UNL1     0.0602
     73 H         0.760716   5.409494   -0.445077 H        1 UNL1     0.0628
     74 H         1.538843   5.435433   2.53057 H        1 UNL1     0.1022
     75 H         10.952429   2.25865   -3.434923 H        1 UNL1     0.0279
     76 H         10.797242   3.450345   -4.663369 H        1 UNL1     0.0279
     77 H         11.914828   3.666792   -3.256439 H        1 UNL1     0.0279
     78 H         9.063833   4.81036   -5.020079 H        1 UNL1     0.1553
     79 H         7.785746   3.33801   -4.666661 H        1 UNL1     0.1484
     80 H         4.036658   2.733921   -4.804188 H        1 UNL1     0.0317
     81 H         4.770769   4.262081   -5.268661 H        1 UNL1     0.0317
     82 H         6.683062   3.073742   -6.375316 H        1 UNL1     0.0428
     83 H         5.12725   2.597461   -7.018984 H        1 UNL1     0.0428
     84 H         6.907612   -0.04015   -4.194722 H        1 UNL1     0.0428
     85 H         7.816869   1.371332   -4.607147 H        1 UNL1     0.0428
     86 H         6.524874   1.441885   -2.473927 H        1 UNL1     0.0317
     87 H         5.028904   1.214582   -3.256715 H        1 UNL1     0.0317
     88 H         7.263576   0.887333   -7.379798 H        1 UNL1     0.0429
     89 H         6.900749   -0.600818   -6.502303 H        1 UNL1     0.0429
     90 H         4.359274   0.214237   -7.305408 H        1 UNL1     0.0308
     91 H         6.300463   1.038353   -9.543136 H        1 UNL1     0.0233
     92 H         4.532412   0.88871   -9.707742 H        1 UNL1     0.0233
     93 H         5.221023   2.127449   -8.680152 H        1 UNL1     0.0233
     94 H         4.647041   -1.474709   -9.155651 H        1 UNL1     0.0233
     95 H         6.34518   -1.598891   -8.670643 H        1 UNL1     0.0233
     96 H         5.059126   -2.038216   -7.523015 H        1 UNL1     0.0233
     97 H         4.133798   10.523094   -0.093247 H        1 UNL1     0.0280
     98 H         5.743516   11.139923   -0.349205 H        1 UNL1     0.0280
     99 H         4.568022   11.141641   -1.697515 H        1 UNL1     0.0280
     100 H         6.683908   10.725714   -3.007321 H        1 UNL1     0.2922
     101 H         4.700954   0.885781   2.434229 H        1 UNL1     0.0236
     102 H         6.014188   2.125124   2.508427 H        1 UNL1     0.0236
     103 H         6.320017   0.517513   1.927437 H        1 UNL1     0.0236
     104 H         4.331855   -0.558233   1.273866 H        1 UNL1     0.2098
     105 H         0.708613   1.282718   -0.929134 H        1 UNL1     0.0234
     106 H         1.291143   -0.403914   -1.012969 H        1 UNL1     0.0234
     107 H         0.0   -0.0   0.0 H        1 UNL1     0.0234
     108 H         1.203076   3.258427   1.750092 H        1 UNL1     0.2098
     109 H         1.078366   3.048196   -0.848943 H        1 UNL1     0.0234
     110 H         -0.179248   2.336007   -1.90913 H        1 UNL1     0.0234
     111 H         0.074835   4.045826   -1.880746 H        1 UNL1     0.0234
     112 H         -3.589936   -1.513085   1.458943 H        1 UNL1     0.0342
     113 H         -3.229985   0.123429   2.115064 H        1 UNL1     0.0342
     114 H         -4.424533   -0.08113   0.83086 H        1 UNL1     0.0342
     115 H         -2.655075   1.948214   3.31225 H        1 UNL1     0.0234
     116 H         -1.14878   1.916699   4.234675 H        1 UNL1     0.0234
     117 H         -1.624481   3.298707   3.226008 H        1 UNL1     0.0234
     118 H         0.939865   7.682896   -0.767717 H        1 UNL1     0.0309
     119 H         2.210193   7.787739   -2.026023 H        1 UNL1     0.0309
     120 H         1.454344   6.26608   -1.607212 H        1 UNL1     0.0309
     121 H         -0.301984   6.27355   2.81719 H        1 UNL1     0.0524
     122 H         -2.042813   6.059013   2.592816 H        1 UNL1     0.0524
     123 H         -1.240453   5.331724   4.007387 H        1 UNL1     0.0524
@<TRIPOS>BOND
     1     1     2    1
     2     1    42    1
     3     2     3    2
     4     3     4    1
     5     4     5    2
     6     5     7    1
     7     6    75    1
     8     6    76    1
     9     6    77    1
    10     7     9   am
    11     9    10    1
    12    10    11    2
    13    10    43    1
    14    11    14    1
    15    11    15    1
    16    12    13   ar
    17    12    27   ar
    18    12    43    1
    19    13    14    1
    20    13    30   ar
    21    14    17    2
    22    15    16    1
    23    16    17    1
    24    16    18    1
    25    16    22    1
    26    18    19    1
    27    19    20    1
    28    20    21    1
    29    21    22    1
    30    23    24    1
    31    23    88    1
    32    23    89    1
    33    24    25    1
    34    24    26    1
    35    24    90    1
    36    25    91    1
    37    25    92    1
    38    25    93    1
    39    26    94    1
    40    26    95    1
    41    26    96    1
    42    27    28   ar
    43    28    29   ar
    44    29    30   ar
    45    29    31    1
    46    30    33    1
    47    31    32    1
    48    32    33    1
    49    32    35    1
    50    34    97    1
    51    34    98    1
    52    34    99    1
    53    35    61    1
    54    36    37    1
    55    36    60    1
    56    37    38    1
    57    38    39    1
    58    39    40    1
    59    40    41    1
    60    41    42    1
    61    45   100    1
    62    47   101    1
    63    47   102    1
    64    47   103    1
    65    48   104    1
    66    49   105    1
    67    49   106    1
    68    49   107    1
    69    50   108    1
    70    51    59    1
    71    52   109    1
    72    52   110    1
    73    52   111    1
    74    53    54    1
    75    54    55    2
    76    54    56    1
    77    56   112    1
    78    56   113    1
    79    56   114    1
    80    57   115    1
    81    57   116    1
    82    57   117    1
    83    58   118    1
    84    58   119    1
    85    58   120    1
    86    59   121    1
    87    59   122    1
    88    59   123    1
    89    60    61    2
    90     1    47    1
    91     1    62    1
    92     2    63    1
    93     3    64    1
    94     4    65    1
    95     5     6    1
    96     7     8    2
    97     9    78    1
    98    15    79    1
    99    18    80    1
   100    18    81    1
   101    19    82    1
   102    19    83    1
   103    20    23    1
   104    21    84    1
   105    21    85    1
   106    22    86    1
   107    22    87    1
   108    27    45    1
   109    28    34    1
   110    32    58    1
   111    33    46    2
   112    36    51    1
   113    36    66    1
   114    37    52    1
   115    37    67    1
   116    38    53    1
   117    38    68    1
   118    42    48    1
   119    42    72    1
   120    43    44    2
   121    60    73    1
   122    61    74    1
   123    39    69    1
   124    39    57    1
   125    40    70    1
   126    40    50    1
   127    41    71    1
   128    41    49    1
