@<TRIPOS>MOLECULE
*****
 123 128 0 0 0
SMALL
GASTEIGER

@<TRIPOS>ATOM
     1 C         -4.226714   -3.055064   1.634189 C.3        1 UNL1     0.0009
     2 C         -5.485946   -4.310018   1.108395 C.2        1 UNL1     -0.0787
     3 C         -6.849217   -4.652273   0.761406 C.2        1 UNL1     -0.0649
     4 C         -7.435533   -6.131014   0.181823 C.2        1 UNL1     -0.0542
     5 C         -8.496401   -6.770025   -0.506147 C.2        1 UNL1     0.0115
     6 C         -9.933197   -6.571612   -1.062538 C.3        1 UNL1     -0.0348
     7 C         -8.25026   -8.227982   -1.131259 C.2        1 UNL1     0.2441
     8 O         -8.657378   -9.254805   -0.605506 O.2        1 UNL1     -0.2702
     9 N         -7.765518   -8.22888   -2.450795 N.am        1 UNL1     -0.2772
     10 C         -6.390691   -8.172951   -2.457357 C.2        1 UNL1     0.1049
     11 C         -5.856431   -6.971732   -2.331416 C.2        1 UNL1     0.0801
     12 C         -4.357839   -9.225089   -1.448468 C.ar        1 UNL1     0.0753
     13 C         -3.91731   -7.897474   -1.145183 C.ar        1 UNL1     0.0305
     14 C         -4.59132   -6.723341   -1.694885 C.2        1 UNL1     0.0924
     15 N         -6.430628   -5.758785   -2.406155 N.pl3        1 UNL1     -0.3170
     16 C         -5.382581   -4.773583   -2.371083 C.3        1 UNL1     0.1275
     17 N         -4.265862   -5.437066   -1.602674 N.2        1 UNL1     -0.2557
     18 C         -4.872311   -4.605208   -3.79901 C.3        1 UNL1     0.0016
     19 C         -6.04564   -4.241991   -4.695093 C.3        1 UNL1     0.0026
     20 N         -6.645046   -3.008855   -4.204057 N.3        1 UNL1     -0.3018
     21 C         -7.111096   -3.053625   -2.816554 C.3        1 UNL1     0.0026
     22 C         -5.915546   -3.415592   -1.933642 C.3        1 UNL1     0.0016
     23 C         -7.572084   -2.417466   -5.148251 C.3        1 UNL1     0.0012
     24 C         -7.657384   -3.26906   -6.424679 C.3        1 UNL1     -0.0339
     25 C         -7.304388   -2.445983   -7.674477 C.3        1 UNL1     -0.0615
     26 C         -6.769866   -4.494561   -6.293382 C.3        1 UNL1     -0.0615
     27 C         -3.639828   -10.33924   -1.020399 C.ar        1 UNL1     0.1347
     28 C         -2.450365   -10.251166   -0.319349 C.ar        1 UNL1     0.0342
     29 C         -2.061762   -8.935249   0.010069 C.ar        1 UNL1     0.1435
     30 C         -2.790034   -7.810945   -0.380804 C.ar        1 UNL1     0.0774
     31 O         -0.871497   -8.67738   0.594688 O.3        1 UNL1     -0.4436
     32 C         -0.635226   -7.28494   0.337475 C.3        1 UNL1     0.3143
     33 C         -2.006806   -6.688956   0.092968 C.2        1 UNL1     0.2504
     34 C         -1.501253   -11.384859   -0.047275 C.3        1 UNL1     -0.0327
     35 O         -0.138961   -6.705889   1.550601 O.2        1 UNL1     -0.4528
     36 C         2.131795   -3.855077   0.490116 C.3        1 UNL1     0.0854
     37 C         1.801921   -2.598315   -0.403894 C.3        1 UNL1     0.0236
     38 C         2.133003   -1.182314   0.272177 C.3        1 UNL1     0.1131
     39 C         1.597436   -0.86189   1.725712 C.3        1 UNL1     0.0200
     40 C         0.033982   -1.253529   2.155444 C.3        1 UNL1     0.0661
     41 C         -1.363623   -0.876975   1.270844 C.3        1 UNL1     0.0091
     42 C         -2.9473   -1.787629   1.103275 C.3        1 UNL1     0.0661
     43 C         -5.556477   -9.374978   -2.310478 C.2        1 UNL1     0.2131
     44 O         -5.803108   -10.380534   -2.951389 O.2        1 UNL1     -0.2851
     45 O         -4.161458   -11.596412   -1.318492 O.3        1 UNL1     -0.5056
     46 O         -2.375881   -5.549606   0.270509 O.2        1 UNL1     -0.2836
     47 C         -4.395536   -2.720179   3.14062 C.3        1 UNL1     -0.0566
     48 O         -3.791533   -0.591906   1.341256 O.3        1 UNL1     -0.3909
     49 C         -0.958221   -0.437508   -0.118404 C.3        1 UNL1     -0.0577
     50 O         -0.037476   -2.583399   2.628796 O.3        1 UNL1     -0.3910
     51 O         2.507029   -3.582655   1.821437 O.3        1 UNL1     -0.3753
     52 C         0.524321   -2.8243   -1.276601 C.3        1 UNL1     -0.0564
     53 O         2.146566   -0.040409   -0.701576 O.3        1 UNL1     -0.4608
     54 C         3.242369   0.716733   -1.023883 C.2        1 UNL1     0.3042
     55 O         4.006695   0.557504   -1.974825 O.2        1 UNL1     -0.2512
     56 C         3.451923   1.890781   -0.110422 C.3        1 UNL1     0.0332
     57 C         2.765501   -1.216588   2.759147 C.3        1 UNL1     -0.0567
     58 C         0.180335   -7.214726   -0.974569 C.3        1 UNL1     0.0210
     59 C         1.804679   -2.501592   2.432889 C.3        1 UNL1     0.0372
     60 C         1.058288   -4.884303   0.548761 C.2        1 UNL1     -0.0208
     61 C         0.559572   -5.554963   1.588108 C.2        1 UNL1     0.0882
     62 H         -3.454685   -3.831378   1.570794 H        1 UNL1     0.0365
     63 H         -4.880163   -5.218586   1.108305 H        1 UNL1     0.0576
     64 H         -7.629866   -3.891633   0.689855 H        1 UNL1     0.0615
     65 H         -6.615196   -6.828728   0.370834 H        1 UNL1     0.0622
     66 H         2.982876   -4.335688   -0.012597 H        1 UNL1     0.0645
     67 H         2.554752   -2.637895   -1.210268 H        1 UNL1     0.0362
     68 H         3.224234   -1.279759   0.378201 H        1 UNL1     0.0741
     69 H         1.62414   0.20882   1.878275 H        1 UNL1     0.0359
     70 H         -0.075941   -0.630408   3.063573 H        1 UNL1     0.0600
     71 H         -1.631267   0.09221   1.735607 H        1 UNL1     0.0348
     72 H         -2.467397   -2.178564   2.012218 H        1 UNL1     0.0602
     73 H         0.773246   -5.148344   -0.439309 H        1 UNL1     0.0628
     74 H         0.755814   -5.309027   2.632255 H        1 UNL1     0.1022
     75 H         -10.636352   -6.291612   -0.241437 H        1 UNL1     0.0279
     76 H         -10.069997   -5.760962   -1.774719 H        1 UNL1     0.0279
     77 H         -10.382807   -7.508446   -1.422944 H        1 UNL1     0.0279
     78 H         -8.107944   -7.405477   -2.941539 H        1 UNL1     0.1553
     79 H         -7.321516   -5.589823   -2.835925 H        1 UNL1     0.1484
     80 H         -4.100981   -3.825717   -3.813461 H        1 UNL1     0.0317
     81 H         -4.395438   -5.524688   -4.1551 H        1 UNL1     0.0317
     82 H         -6.788389   -5.051971   -4.741639 H        1 UNL1     0.0428
     83 H         -5.659814   -4.128438   -5.708648 H        1 UNL1     0.0428
     84 H         -7.483454   -2.092843   -2.447693 H        1 UNL1     0.0428
     85 H         -7.964044   -3.735303   -2.693625 H        1 UNL1     0.0428
     86 H         -6.260068   -3.308937   -0.921753 H        1 UNL1     0.0317
     87 H         -5.139244   -2.645522   -2.019928 H        1 UNL1     0.0317
     88 H         -8.56472   -2.389035   -4.680104 H        1 UNL1     0.0429
     89 H         -7.296688   -1.380869   -5.381484 H        1 UNL1     0.0429
     90 H         -8.679646   -3.64997   -6.534687 H        1 UNL1     0.0308
     91 H         -6.522786   -2.93401   -8.264418 H        1 UNL1     0.0233
     92 H         -8.18686   -2.297616   -8.301246 H        1 UNL1     0.0233
     93 H         -6.935167   -1.444064   -7.424139 H        1 UNL1     0.0233
     94 H         -6.342277   -4.757309   -7.267018 H        1 UNL1     0.0233
     95 H         -5.943884   -4.285973   -5.607664 H        1 UNL1     0.0233
     96 H         -7.330902   -5.35528   -5.918721 H        1 UNL1     0.0233
     97 H         -0.953701   -11.24426   0.879898 H        1 UNL1     0.0280
     98 H         -2.022557   -12.345681   0.054305 H        1 UNL1     0.0280
     99 H         -0.772479   -11.461741   -0.870728 H        1 UNL1     0.0280
     100 H         -4.7283   -11.952047   -0.6568 H        1 UNL1     0.2922
     101 H         -5.450805   -2.759294   3.40994 H        1 UNL1     0.0236
     102 H         -3.936077   -1.773659   3.423426 H        1 UNL1     0.0236
     103 H         -3.913361   -3.47124   3.788392 H        1 UNL1     0.0236
     104 H         -3.884209   -0.122004   0.48945 H        1 UNL1     0.2098
     105 H         -0.867405   -1.247984   -0.837217 H        1 UNL1     0.0234
     106 H         -1.560029   0.370511   -0.534167 H        1 UNL1     0.0234
     107 H         0.0   0.0   0.0 H        1 UNL1     0.0234
     108 H         0.042654   -3.171953   1.853586 H        1 UNL1     0.2098
     109 H         -0.329682   -3.175504   -0.680743 H        1 UNL1     0.0234
     110 H         0.23173   -1.937483   -1.849042 H        1 UNL1     0.0234
     111 H         0.688503   -3.593569   -2.042901 H        1 UNL1     0.0234
     112 H         3.688713   2.782472   -0.698779 H        1 UNL1     0.0342
     113 H         2.592782   2.065633   0.535448 H        1 UNL1     0.0342
     114 H         4.31458   1.673994   0.53455 H        1 UNL1     0.0342
     115 H         3.760431   -1.082798   2.3126 H        1 UNL1     0.0234
     116 H         2.737136   -0.630059   3.679598 H        1 UNL1     0.0234
     117 H         2.798246   -2.284261   3.036535 H        1 UNL1     0.0234
     118 H         0.921608   -8.029837   -1.046088 H        1 UNL1     0.0309
     119 H         -0.447223   -7.221627   -1.871411 H        1 UNL1     0.0309
     120 H         0.793451   -6.309269   -1.040457 H        1 UNL1     0.0309
     121 H         1.440065   -2.849723   3.398921 H        1 UNL1     0.0524
     122 H         2.455792   -1.631043   2.617912 H        1 UNL1     0.0524
     123 H         0.972132   -2.192548   1.807228 H        1 UNL1     0.0524
@<TRIPOS>BOND
     1     1     2    1
     2     1    42    1
     3     2     3    2
     4     3     4    1
     5     4     5    2
     6     5     7    1
     7     6    75    1
     8     6    76    1
     9     6    77    1
    10     7     9   am
    11     9    10    1
    12    10    11    2
    13    10    43    1
    14    11    14    1
    15    11    15    1
    16    12    13   ar
    17    12    27   ar
    18    12    43    1
    19    13    14    1
    20    13    30   ar
    21    14    17    2
    22    15    16    1
    23    16    17    1
    24    16    18    1
    25    16    22    1
    26    18    19    1
    27    19    20    1
    28    20    21    1
    29    21    22    1
    30    23    24    1
    31    23    88    1
    32    23    89    1
    33    24    25    1
    34    24    26    1
    35    24    90    1
    36    25    91    1
    37    25    92    1
    38    25    93    1
    39    26    94    1
    40    26    95    1
    41    26    96    1
    42    27    28   ar
    43    28    29   ar
    44    29    30   ar
    45    29    31    1
    46    30    33    1
    47    31    32    1
    48    32    33    1
    49    32    35    1
    50    34    97    1
    51    34    98    1
    52    34    99    1
    53    35    61    1
    54    36    37    1
    55    36    60    1
    56    37    38    1
    57    38    39    1
    58    39    40    1
    59    40    41    1
    60    41    42    1
    61    45   100    1
    62    47   101    1
    63    47   102    1
    64    47   103    1
    65    48   104    1
    66    49   105    1
    67    49   106    1
    68    49   107    1
    69    50   108    1
    70    51    59    1
    71    52   109    1
    72    52   110    1
    73    52   111    1
    74    53    54    1
    75    54    55    2
    76    54    56    1
    77    56   112    1
    78    56   113    1
    79    56   114    1
    80    57   115    1
    81    57   116    1
    82    57   117    1
    83    58   118    1
    84    58   119    1
    85    58   120    1
    86    59   121    1
    87    59   122    1
    88    59   123    1
    89    60    61    2
    90     1    47    1
    91     1    62    1
    92     2    63    1
    93     3    64    1
    94     4    65    1
    95     5     6    1
    96     7     8    2
    97     9    78    1
    98    15    79    1
    99    18    80    1
   100    18    81    1
   101    19    82    1
   102    19    83    1
   103    20    23    1
   104    21    84    1
   105    21    85    1
   106    22    86    1
   107    22    87    1
   108    27    45    1
   109    28    34    1
   110    32    58    1
   111    33    46    2
   112    36    51    1
   113    36    66    1
   114    37    52    1
   115    37    67    1
   116    38    53    1
   117    38    68    1
   118    42    48    1
   119    42    72    1
   120    43    44    2
   121    60    73    1
   122    61    74    1
   123    39    69    1
   124    39    57    1
   125    40    70    1
   126    40    50    1
   127    41    71    1
   128    41    49    1
