@<TRIPOS>MOLECULE
*****
 123 128 0 0 0
SMALL
GASTEIGER

@<TRIPOS>ATOM
     1 C         5.167097   1.749405   0.489862 C.3        1 UNL1     0.0009
     2 C         6.603363   2.555929   -0.360841 C.2        1 UNL1     -0.0787
     3 C         7.885015   2.458089   -1.027056 C.2        1 UNL1     -0.0649
     4 C         8.762014   3.693525   -1.782653 C.2        1 UNL1     -0.0542
     5 C         9.78166   3.986547   -2.721556 C.2        1 UNL1     0.0115
     6 C         10.909635   3.361478   -3.587746 C.3        1 UNL1     -0.0348
     7 C         9.876569   5.469967   -3.32773 C.2        1 UNL1     0.2441
     8 O         10.700472   6.291638   -2.950151 O.2        1 UNL1     -0.2702
     9 N         9.125895   5.677117   -4.498084 N.am        1 UNL1     -0.2772
     10 C         7.843239   6.063538   -4.183771 C.2        1 UNL1     0.1049
     11 C         6.997696   5.091932   -3.891772 C.2        1 UNL1     0.0801
     12 C         6.545128   7.669656   -2.772168 C.ar        1 UNL1     0.0753
     13 C         5.786392   6.541523   -2.324683 C.ar        1 UNL1     0.0305
     14 C         5.903276   5.235998   -2.970433 C.2        1 UNL1     0.0924
     15 N         7.120448   3.763011   -4.051233 N.pl3        1 UNL1     -0.3170
     16 C         5.850787   3.163583   -3.736746 C.3        1 UNL1     0.1275
     17 N         5.214605   4.118486   -2.756359 N.2        1 UNL1     -0.2557
     18 C         4.997474   3.222844   -5.000094 C.3        1 UNL1     0.0016
     19 C         5.752045   2.539137   -6.129145 C.3        1 UNL1     0.0026
     20 N         6.022522   1.160979   -5.743723 N.3        1 UNL1     -0.3018
     21 C         6.786349   1.000388   -4.504713 C.3        1 UNL1     0.0026
     22 C         6.00791   1.690521   -3.383266 C.3        1 UNL1     0.0016
     23 C         6.466744   0.341777   -6.853777 C.3        1 UNL1     0.0012
     24 C         5.310979   0.092379   -7.835493 C.3        1 UNL1     -0.0339
     25 C         5.346122   1.084821   -9.009325 C.3        1 UNL1     -0.0615
     26 C         5.34011   -1.346995   -8.319365 C.3        1 UNL1     -0.0615
     27 C         6.340483   8.937189   -2.232167 C.ar        1 UNL1     0.1347
     28 C         5.381734   9.206365   -1.271753 C.ar        1 UNL1     0.0342
     29 C         4.6805   8.071703   -0.811344 C.ar        1 UNL1     0.1435
     30 C         4.899941   6.78983   -1.317179 C.ar        1 UNL1     0.0774
     31 O         3.639802   8.184913   0.042552 O.3        1 UNL1     -0.4436
     32 C         2.918248   6.952026   -0.099646 C.3        1 UNL1     0.3143
     33 C         3.931492   5.959194   -0.632406 C.2        1 UNL1     0.2504
     34 C         4.934862   10.572299   -0.830583 C.3        1 UNL1     -0.0327
     35 O         2.558154   6.514956   1.216619 O.2        1 UNL1     -0.4528
     36 C         -0.684763   4.582406   0.820608 C.3        1 UNL1     0.0854
     37 C         -0.99022   3.321994   -0.076934 C.3        1 UNL1     0.0236
     38 C         -1.590307   2.060676   0.710922 C.3        1 UNL1     0.1131
     39 C         -0.863995   1.529533   2.011932 C.3        1 UNL1     0.0200
     40 C         0.797233   1.384214   2.052453 C.3        1 UNL1     0.0661
     41 C         1.75628   0.615798   0.883104 C.3        1 UNL1     0.0091
     42 C         3.463607   0.978731   0.318556 C.3        1 UNL1     0.0661
     43 C         7.494785   7.462355   -3.893522 C.2        1 UNL1     0.2131
     44 O         7.894276   8.36066   -4.611988 O.2        1 UNL1     -0.2851
     45 O         7.152434   9.972519   -2.690712 O.3        1 UNL1     -0.5056
     46 O         3.947699   4.755631   -0.501919 O.2        1 UNL1     -0.2836
     47 C         5.564052   1.319646   1.927817 C.3        1 UNL1     -0.0566
     48 O         3.9124   -0.43233   0.399844 O.3        1 UNL1     -0.3909
     49 C         0.921665   0.383381   -0.356612 C.3        1 UNL1     -0.0577
     50 O         1.397406   2.602069   2.44532 O.3        1 UNL1     -0.3910
     51 O         -0.808308   4.392389   2.212032 O.3        1 UNL1     -0.3753
     52 C         0.053829   3.161938   -1.229883 C.3        1 UNL1     -0.0564
     53 O         -2.193099   1.021817   -0.188934 O.3        1 UNL1     -0.4608
     54 C         -2.4272   -0.285046   0.150529 C.2        1 UNL1     0.3042
     55 O         -1.858125   -1.283995   -0.287756 O.2        1 UNL1     -0.2512
     56 C         -3.466796   -0.451084   1.222156 C.3        1 UNL1     0.0332
     57 C         -1.584646   2.198134   3.273601 C.3        1 UNL1     -0.0567
     58 C         1.842614   7.197217   -1.183354 C.3        1 UNL1     0.0210
     59 C         -1.121394   5.57118   2.952502 C.3        1 UNL1     0.0372
     60 C         0.644059   5.211728   0.58964 C.2        1 UNL1     -0.0208
     61 C         1.557259   5.646888   1.458805 C.2        1 UNL1     0.0882
     62 H         4.691073   2.733492   0.577533 H        1 UNL1     0.0365
     63 H         6.337009   3.609667   -0.255196 H        1 UNL1     0.0576
     64 H         8.34272   1.491354   -1.248496 H        1 UNL1     0.0615
     65 H         8.274935   4.608775   -1.435443 H        1 UNL1     0.0622
     66 H         -1.429633   5.328901   0.510835 H        1 UNL1     0.0645
     67 H         -1.856041   3.631379   -0.687831 H        1 UNL1     0.0362
     68 H         -2.537305   2.497341   1.063115 H        1 UNL1     0.0741
     69 H         -1.195304   0.518345   2.207229 H        1 UNL1     0.0359
     70 H         0.909432   0.723699   2.933471 H        1 UNL1     0.0600
     71 H         1.800164   -0.405458   1.309798 H        1 UNL1     0.0348
     72 H         3.358028   1.4667   1.29838 H        1 UNL1     0.0602
     73 H         0.761535   5.409228   -0.446912 H        1 UNL1     0.0628
     74 H         1.540146   5.435981   2.5286 H        1 UNL1     0.1022
     75 H         10.935706   2.252782   -3.456795 H        1 UNL1     0.0279
     76 H         10.809018   3.467762   -4.665544 H        1 UNL1     0.0279
     77 H         11.915592   3.644052   -3.244378 H        1 UNL1     0.0279
     78 H         9.063815   4.807277   -5.023063 H        1 UNL1     0.1553
     79 H         7.785543   3.33525   -4.668972 H        1 UNL1     0.1484
     80 H         4.036334   2.731735   -4.805704 H        1 UNL1     0.0317
     81 H         4.770621   4.259626   -5.270779 H        1 UNL1     0.0317
     82 H         6.682541   3.070622   -6.377366 H        1 UNL1     0.0428
     83 H         5.126546   2.594393   -7.020632 H        1 UNL1     0.0428
     84 H         6.906929   -0.042617   -4.195822 H        1 UNL1     0.0428
     85 H         7.816352   1.368585   -4.60884 H        1 UNL1     0.0428
     86 H         6.524713   1.440027   -2.475435 H        1 UNL1     0.0317
     87 H         5.028579   1.212723   -3.25791 H        1 UNL1     0.0317
     88 H         7.262532   0.8838   -7.381249 H        1 UNL1     0.0429
     89 H         6.899602   -0.604014   -6.503225 H        1 UNL1     0.0429
     90 H         4.358131   0.211206   -7.306178 H        1 UNL1     0.0308
     91 H         6.299096   1.034293   -9.54448 H        1 UNL1     0.0233
     92 H         4.530993   0.884889   -9.708753 H        1 UNL1     0.0233
     93 H         5.219974   2.123841   -8.681667 H        1 UNL1     0.0233
     94 H         4.645322   -1.478373   -9.155932 H        1 UNL1     0.0233
     95 H         6.343518   -1.602681   -8.671159 H        1 UNL1     0.0233
     96 H         5.057577   -2.041431   -7.523185 H        1 UNL1     0.0233
     97 H         4.135516   10.522383   -0.097245 H        1 UNL1     0.0280
     98 H         5.745295   11.138866   -0.353659 H        1 UNL1     0.0280
     99 H         4.569583   11.14035   -1.701779 H        1 UNL1     0.0280
     100 H         6.68519   10.72366   -3.011794 H        1 UNL1     0.2922
     101 H         4.701492   0.885777   2.433191 H        1 UNL1     0.0236
     102 H         6.014942   2.124927   2.506785 H        1 UNL1     0.0236
     103 H         6.320413   0.517082   1.926254 H        1 UNL1     0.0236
     104 H         4.331968   -0.558543   1.273345 H        1 UNL1     0.2098
     105 H         0.708675   1.282307   -0.929655 H        1 UNL1     0.0234
     106 H         1.290913   -0.404447   -1.013049 H        1 UNL1     0.0234
     107 H         0.0   -0.0   0.0 H        1 UNL1     0.0234
     108 H         1.203895   3.258782   1.748866 H        1 UNL1     0.2098
     109 H         1.080272   3.060915   -0.850514 H        1 UNL1     0.0234
     110 H         -0.172089   2.327339   -1.902304 H        1 UNL1     0.0234
     111 H         0.065858   4.039667   -1.889727 H        1 UNL1     0.0234
     112 H         -3.58995   -1.512031   1.46 H        1 UNL1     0.0342
     113 H         -3.229623   0.124631   2.115546 H        1 UNL1     0.0342
     114 H         -4.424412   -0.080138   0.831599 H        1 UNL1     0.0342
     115 H         -2.654221   1.9497   3.312061 H        1 UNL1     0.0234
     116 H         -1.147782   1.918229   4.234253 H        1 UNL1     0.0234
     117 H         -1.623418   3.299996   3.225225 H        1 UNL1     0.0234
     118 H         0.941318   7.683203   -0.770451 H        1 UNL1     0.0309
     119 H         2.211363   7.786083   -2.029205 H        1 UNL1     0.0309
     120 H         1.454565   6.265312   -1.608886 H        1 UNL1     0.0309
     121 H         -0.300496   6.274491   2.815252 H        1 UNL1     0.0524
     122 H         -2.041397   6.06017   2.591226 H        1 UNL1     0.0524
     123 H         -1.238928   5.333197   4.005898 H        1 UNL1     0.0524
@<TRIPOS>BOND
     1     1     2    1
     2     1    42    1
     3     2     3    2
     4     3     4    1
     5     4     5    2
     6     5     7    1
     7     6    75    1
     8     6    76    1
     9     6    77    1
    10     7     9   am
    11     9    10    1
    12    10    11    2
    13    10    43    1
    14    11    14    1
    15    11    15    1
    16    12    13   ar
    17    12    27   ar
    18    12    43    1
    19    13    14    1
    20    13    30   ar
    21    14    17    2
    22    15    16    1
    23    16    17    1
    24    16    18    1
    25    16    22    1
    26    18    19    1
    27    19    20    1
    28    20    21    1
    29    21    22    1
    30    23    24    1
    31    23    88    1
    32    23    89    1
    33    24    25    1
    34    24    26    1
    35    24    90    1
    36    25    91    1
    37    25    92    1
    38    25    93    1
    39    26    94    1
    40    26    95    1
    41    26    96    1
    42    27    28   ar
    43    28    29   ar
    44    29    30   ar
    45    29    31    1
    46    30    33    1
    47    31    32    1
    48    32    33    1
    49    32    35    1
    50    34    97    1
    51    34    98    1
    52    34    99    1
    53    35    61    1
    54    36    37    1
    55    36    60    1
    56    37    38    1
    57    38    39    1
    58    39    40    1
    59    40    41    1
    60    41    42    1
    61    45   100    1
    62    47   101    1
    63    47   102    1
    64    47   103    1
    65    48   104    1
    66    49   105    1
    67    49   106    1
    68    49   107    1
    69    50   108    1
    70    51    59    1
    71    52   109    1
    72    52   110    1
    73    52   111    1
    74    53    54    1
    75    54    55    2
    76    54    56    1
    77    56   112    1
    78    56   113    1
    79    56   114    1
    80    57   115    1
    81    57   116    1
    82    57   117    1
    83    58   118    1
    84    58   119    1
    85    58   120    1
    86    59   121    1
    87    59   122    1
    88    59   123    1
    89    60    61    2
    90     1    47    1
    91     1    62    1
    92     2    63    1
    93     3    64    1
    94     4    65    1
    95     5     6    1
    96     7     8    2
    97     9    78    1
    98    15    79    1
    99    18    80    1
   100    18    81    1
   101    19    82    1
   102    19    83    1
   103    20    23    1
   104    21    84    1
   105    21    85    1
   106    22    86    1
   107    22    87    1
   108    27    45    1
   109    28    34    1
   110    32    58    1
   111    33    46    2
   112    36    51    1
   113    36    66    1
   114    37    52    1
   115    37    67    1
   116    38    53    1
   117    38    68    1
   118    42    48    1
   119    42    72    1
   120    43    44    2
   121    60    73    1
   122    61    74    1
   123    39    69    1
   124    39    57    1
   125    40    70    1
   126    40    50    1
   127    41    71    1
   128    41    49    1
