@<TRIPOS>MOLECULE
*****
 123 128 0 0 0
SMALL
GASTEIGER

@<TRIPOS>ATOM
     1 C         -3.405029   3.952837   -1.241292 C.3        1 UNL1     0.0009
     2 C         -4.90686   4.328805   -2.261187 C.2        1 UNL1     -0.0787
     3 C         -5.529864   5.012435   -3.374993 C.2        1 UNL1     -0.0649
     4 C         -7.116811   4.847304   -3.941285 C.2        1 UNL1     -0.0542
     5 C         -7.981715   5.043921   -5.045984 C.2        1 UNL1     0.0115
     6 C         -8.098101   5.698982   -6.449791 C.3        1 UNL1     -0.0348
     7 C         -9.381896   4.259756   -5.085584 C.2        1 UNL1     0.2441
     8 O         -10.449752   4.790485   -4.812571 O.2        1 UNL1     -0.2702
     9 N         -9.333369   2.99866   -5.704805 N.am        1 UNL1     -0.2772
     10 C         -9.001252   2.026622   -4.789293 C.2        1 UNL1     0.1049
     11 C         -7.713095   1.879884   -4.537612 C.2        1 UNL1     0.0801
     12 C         -9.583429   1.161303   -2.515612 C.ar        1 UNL1     0.0753
     13 C         -8.18398   1.219472   -2.221049 C.ar        1 UNL1     0.0305
     14 C         -7.191142   1.455861   -3.266728 C.2        1 UNL1     0.0924
     15 N         -6.644665   2.38046   -5.181358 N.pl3        1 UNL1     -0.3170
     16 C         -5.467517   1.780529   -4.61157 C.3        1 UNL1     0.1275
     17 N         -5.863144   1.44384   -3.194586 N.2        1 UNL1     -0.2557
     18 C         -5.252148   0.446307   -5.319504 C.3        1 UNL1     0.0016
     19 C         -5.166515   0.698274   -6.816424 C.3        1 UNL1     0.0026
     20 N         -4.062631   1.612535   -7.074485 N.3        1 UNL1     -0.3018
     21 C         -4.149582   2.902158   -6.386241 C.3        1 UNL1     0.0026
     22 C         -4.229987   2.625439   -4.883958 C.3        1 UNL1     0.0016
     23 C         -3.705718   1.683932   -8.477396 C.3        1 UNL1     0.0012
     24 C         -3.041928   0.374419   -8.931614 C.3        1 UNL1     -0.0339
     25 C         -4.05648   -0.568055   -9.59981 C.3        1 UNL1     -0.0615
     26 C         -1.870041   0.675691   -9.849599 C.3        1 UNL1     -0.0615
     27 C         -10.513146   0.816364   -1.537469 C.ar        1 UNL1     0.1347
     28 C         -10.161001   0.471553   -0.24474 C.ar        1 UNL1     0.0342
     29 C         -8.782526   0.583283   0.035419 C.ar        1 UNL1     0.1435
     30 C         -7.843579   0.962574   -0.924652 C.ar        1 UNL1     0.0774
     31 O         -8.268318   0.177338   1.21686 O.3        1 UNL1     -0.4436
     32 C         -6.867261   -0.001698   0.960231 C.3        1 UNL1     0.3143
     33 C         -6.569912   0.871758   -0.241797 C.2        1 UNL1     0.2504
     34 C         -11.068908   -0.147956   0.780937 C.3        1 UNL1     -0.0327
     35 O         -6.155758   0.559709   2.070113 O.2        1 UNL1     -0.4528
     36 C         -2.946064   -1.444334   2.369726 C.3        1 UNL1     0.0854
     37 C         -1.815514   -1.681279   1.295838 C.3        1 UNL1     0.0236
     38 C         -0.337966   -1.275735   1.769261 C.3        1 UNL1     0.1131
     39 C         -0.079109   0.152922   2.397116 C.3        1 UNL1     0.0200
     40 C         -0.762332   1.512541   1.713682 C.3        1 UNL1     0.0661
     41 C         -0.708513   1.933015   0.071149 C.3        1 UNL1     0.0091
     42 C         -1.925729   2.829313   -0.968292 C.3        1 UNL1     0.0661
     43 C         -10.003838   1.393273   -3.919786 C.2        1 UNL1     0.2131
     44 O         -11.061336   1.001628   -4.379189 O.2        1 UNL1     -0.2851
     45 O         -11.859837   0.827733   -1.894863 O.3        1 UNL1     -0.5056
     46 O         -5.522824   1.393563   -0.553532 O.2        1 UNL1     -0.2836
     47 C         -3.056019   5.160137   -0.32992 C.3        1 UNL1     -0.0566
     48 O         -0.917196   3.736608   -1.567287 O.3        1 UNL1     -0.3909
     49 C         -0.247579   0.732553   -0.725045 C.3        1 UNL1     -0.0577
     50 O         -2.060929   1.732593   2.226464 O.3        1 UNL1     -0.3910
     51 O         -2.554759   -0.751807   3.53365 O.3        1 UNL1     -0.3753
     52 C         -2.326737   -1.409934   -0.156736 C.3        1 UNL1     -0.0564
     53 O         0.746593   -1.825277   0.889453 O.3        1 UNL1     -0.4608
     54 C         2.060426   -1.977738   1.247962 C.2        1 UNL1     0.3042
     55 O         2.766977   -1.174109   1.855254 O.2        1 UNL1     -0.2512
     56 C         2.632437   -3.3174   0.88078 C.3        1 UNL1     0.0332
     57 C         -0.15242   0.001212   3.987646 C.3        1 UNL1     -0.0567
     58 C         -6.682058   -1.48346   0.55822 C.3        1 UNL1     0.0210
     59 C         -3.193304   -1.186863   4.733172 C.3        1 UNL1     0.0372
     60 C         -4.167997   -0.766486   1.857318 C.2        1 UNL1     -0.0208
     61 C         -4.886901   0.229036   2.377757 C.2        1 UNL1     0.0882
     62 H         -4.011249   3.268469   -0.635612 H        1 UNL1     0.0365
     63 H         -5.673763   3.790372   -1.700455 H        1 UNL1     0.0576
     64 H         -4.945683   5.607198   -4.080753 H        1 UNL1     0.0615
     65 H         -7.627076   4.313648   -3.134857 H        1 UNL1     0.0622
     66 H         -3.263053   -2.454671   2.664315 H        1 UNL1     0.0645
     67 H         -1.731858   -2.780172   1.232639 H        1 UNL1     0.0362
     68 H         -0.209088   -1.986955   2.599369 H        1 UNL1     0.0741
     69 H         0.979803   0.36867   2.346465 H        1 UNL1     0.0359
     70 H         -0.14131   2.296709   2.187467 H        1 UNL1     0.0600
     71 H         0.203068   2.562221   0.062469 H        1 UNL1     0.0348
     72 H         -2.178041   3.074316   0.073643 H        1 UNL1     0.0602
     73 H         -4.520277   -1.283245   0.999351 H        1 UNL1     0.0628
     74 H         -4.568213   0.845536   3.218949 H        1 UNL1     0.1022
     75 H         -7.729247   6.752659   -6.422507 H        1 UNL1     0.0279
     76 H         -7.495013   5.26009   -7.241453 H        1 UNL1     0.0279
     77 H         -9.141426   5.842656   -6.766858 H        1 UNL1     0.0279
     78 H         -8.614672   2.998965   -6.425604 H        1 UNL1     0.1553
     79 H         -6.674987   2.7332   -6.120287 H        1 UNL1     0.1484
     80 H         -4.334027   -0.016684   -4.938112 H        1 UNL1     0.0317
     81 H         -6.068839   -0.249626   -5.099634 H        1 UNL1     0.0317
     82 H         -6.110946   1.09494   -7.217197 H        1 UNL1     0.0428
     83 H         -5.014707   -0.266229   -7.301951 H        1 UNL1     0.0428
     84 H         -3.270894   3.537874   -6.533155 H        1 UNL1     0.0428
     85 H         -4.984467   3.510159   -6.761233 H        1 UNL1     0.0428
     86 H         -4.157997   3.585962   -4.408352 H        1 UNL1     0.0317
     87 H         -3.322722   2.107844   -4.549198 H        1 UNL1     0.0317
     88 H         -4.626734   1.828332   -9.057201 H        1 UNL1     0.0429
     89 H         -3.058928   2.547082   -8.680882 H        1 UNL1     0.0429
     90 H         -2.615595   -0.133815   -8.058602 H        1 UNL1     0.0308
     91 H         -3.571043   -1.474678   -9.973292 H        1 UNL1     0.0233
     92 H         -4.845387   -0.847022   -8.897378 H        1 UNL1     0.0233
     93 H         -4.559702   -0.101216   -10.455183 H        1 UNL1     0.0233
     94 H         -2.060224   0.271764   -10.849854 H        1 UNL1     0.0233
     95 H         -1.736599   1.757135   -9.942513 H        1 UNL1     0.0233
     96 H         -0.942918   0.236924   -9.470265 H        1 UNL1     0.0233
     97 H         -10.695368   -1.105936   1.130182 H        1 UNL1     0.0280
     98 H         -11.170847   0.47932   1.676141 H        1 UNL1     0.0280
     99 H         -12.067852   -0.305643   0.342369 H        1 UNL1     0.0280
     100 H         -12.141112   1.609675   -2.336534 H        1 UNL1     0.2922
     101 H         -3.352528   4.943978   0.696245 H        1 UNL1     0.0236
     102 H         -3.47332   6.101208   -0.68661 H        1 UNL1     0.0236
     103 H         -1.968905   5.33743   -0.275666 H        1 UNL1     0.0236
     104 H         -0.969965   4.589888   -1.093896 H        1 UNL1     0.2098
     105 H         -1.005592   0.309868   -1.379694 H        1 UNL1     0.0234
     106 H         0.684262   0.878817   -1.271129 H        1 UNL1     0.0234
     107 H         0.0   0.0   0.0 H        1 UNL1     0.0234
     108 H         -2.231635   2.693121   2.181578 H        1 UNL1     0.2098
     109 H         -1.539346   -1.001104   -0.805262 H        1 UNL1     0.0234
     110 H         -2.768755   -2.293574   -0.62954 H        1 UNL1     0.0234
     111 H         -3.1366   -0.668367   -0.168851 H        1 UNL1     0.0234
     112 H         3.673315   -3.381129   1.21223 H        1 UNL1     0.0342
     113 H         2.042815   -4.139071   1.284569 H        1 UNL1     0.0342
     114 H         2.621629   -3.406616   -0.214249 H        1 UNL1     0.0342
     115 H         0.129407   0.931378   4.500046 H        1 UNL1     0.0234
     116 H         -1.13507   -0.294361   4.360586 H        1 UNL1     0.0234
     117 H         0.59297   -0.702006   4.397302 H        1 UNL1     0.0234
     118 H         -6.14376   -2.058733   1.331719 H        1 UNL1     0.0309
     119 H         -7.626224   -1.987684   0.329067 H        1 UNL1     0.0309
     120 H         -6.051464   -1.602467   -0.329639 H        1 UNL1     0.0309
     121 H         -4.044438   -0.52999   4.910498 H        1 UNL1     0.0524
     122 H         -3.579856   -2.21641   4.65164 H        1 UNL1     0.0524
     123 H         -2.499983   -1.135634   5.567903 H        1 UNL1     0.0524
@<TRIPOS>BOND
     1     1     2    1
     2     1    42    1
     3     2     3    2
     4     3     4    1
     5     4     5    2
     6     5     7    1
     7     6    75    1
     8     6    76    1
     9     6    77    1
    10     7     9   am
    11     9    10    1
    12    10    11    2
    13    10    43    1
    14    11    14    1
    15    11    15    1
    16    12    13   ar
    17    12    27   ar
    18    12    43    1
    19    13    14    1
    20    13    30   ar
    21    14    17    2
    22    15    16    1
    23    16    17    1
    24    16    18    1
    25    16    22    1
    26    18    19    1
    27    19    20    1
    28    20    21    1
    29    21    22    1
    30    23    24    1
    31    23    88    1
    32    23    89    1
    33    24    25    1
    34    24    26    1
    35    24    90    1
    36    25    91    1
    37    25    92    1
    38    25    93    1
    39    26    94    1
    40    26    95    1
    41    26    96    1
    42    27    28   ar
    43    28    29   ar
    44    29    30   ar
    45    29    31    1
    46    30    33    1
    47    31    32    1
    48    32    33    1
    49    32    35    1
    50    34    97    1
    51    34    98    1
    52    34    99    1
    53    35    61    1
    54    36    37    1
    55    36    60    1
    56    37    38    1
    57    38    39    1
    58    39    40    1
    59    40    41    1
    60    41    42    1
    61    45   100    1
    62    47   101    1
    63    47   102    1
    64    47   103    1
    65    48   104    1
    66    49   105    1
    67    49   106    1
    68    49   107    1
    69    50   108    1
    70    51    59    1
    71    52   109    1
    72    52   110    1
    73    52   111    1
    74    53    54    1
    75    54    55    2
    76    54    56    1
    77    56   112    1
    78    56   113    1
    79    56   114    1
    80    57   115    1
    81    57   116    1
    82    57   117    1
    83    58   118    1
    84    58   119    1
    85    58   120    1
    86    59   121    1
    87    59   122    1
    88    59   123    1
    89    60    61    2
    90     1    47    1
    91     1    62    1
    92     2    63    1
    93     3    64    1
    94     4    65    1
    95     5     6    1
    96     7     8    2
    97     9    78    1
    98    15    79    1
    99    18    80    1
   100    18    81    1
   101    19    82    1
   102    19    83    1
   103    20    23    1
   104    21    84    1
   105    21    85    1
   106    22    86    1
   107    22    87    1
   108    27    45    1
   109    28    34    1
   110    32    58    1
   111    33    46    2
   112    36    51    1
   113    36    66    1
   114    37    52    1
   115    37    67    1
   116    38    53    1
   117    38    68    1
   118    42    48    1
   119    42    72    1
   120    43    44    2
   121    60    73    1
   122    61    74    1
   123    39    69    1
   124    39    57    1
   125    40    70    1
   126    40    50    1
   127    41    71    1
   128    41    49    1
