@<TRIPOS>MOLECULE
*****
 123 128 0 0 0
SMALL
GASTEIGER

@<TRIPOS>ATOM
     1 C         -0.13089   0.963346   4.031025 C.3        1 UNL1     0.0009
     2 C         -1.482194   0.568945   5.237451 C.2        1 UNL1     -0.0787
     3 C         -2.653414   0.971387   5.987339 C.2        1 UNL1     -0.0649
     4 C         -3.645577   0.007831   6.963828 C.2        1 UNL1     -0.0542
     5 C         -4.920814   -0.104039   7.570732 C.2        1 UNL1     0.0115
     6 C         -6.233621   0.663921   7.887115 C.3        1 UNL1     -0.0348
     7 C         -5.416904   -1.544645   8.07624 C.2        1 UNL1     0.2441
     8 O         -5.397252   -1.88016   9.252492 O.2        1 UNL1     -0.2702
     9 N         -6.116687   -2.296703   7.116624 N.am        1 UNL1     -0.2772
     10 C         -5.242419   -3.04397   6.361264 C.2        1 UNL1     0.1049
     11 C         -4.662933   -2.41834   5.352796 C.2        1 UNL1     0.0801
     12 C         -3.308412   -4.619749   6.545299 C.ar        1 UNL1     0.0753
     13 C         -2.63785   -3.783576   5.596738 C.ar        1 UNL1     0.0305
     14 C         -3.34425   -2.72982   4.871723 C.2        1 UNL1     0.0924
     15 N         -4.938739   -1.222344   4.805026 N.pl3        1 UNL1     -0.3170
     16 C         -4.12848   -1.082473   3.624276 C.3        1 UNL1     0.1275
     17 N         -2.912818   -1.934189   3.897164 N.2        1 UNL1     -0.2557
     18 C         -4.874478   -1.763247   2.480714 C.3        1 UNL1     0.0016
     19 C         -6.259595   -1.146481   2.368287 C.3        1 UNL1     0.0026
     20 N         -6.117067   0.282146   2.123871 N.3        1 UNL1     -0.3018
     21 C         -5.359019   1.014262   3.140601 C.3        1 UNL1     0.0026
     22 C         -3.969702   0.380979   3.233576 C.3        1 UNL1     0.0016
     23 C         -7.355197   0.909058   1.705949 C.3        1 UNL1     0.0012
     24 C         -7.733263   0.460673   0.285466 C.3        1 UNL1     -0.0339
     25 C         -8.432828   1.58742   -0.49242 C.3        1 UNL1     -0.0615
     26 C         -6.501625   -0.042974   -0.446783 C.3        1 UNL1     -0.0615
     27 C         -2.659736   -5.698144   7.142293 C.ar        1 UNL1     0.1347
     28 C         -1.359065   -6.061409   6.84172 C.ar        1 UNL1     0.0342
     29 C         -0.702915   -5.194779   5.941952 C.ar        1 UNL1     0.1435
     30 C         -1.328488   -4.089663   5.363508 C.ar        1 UNL1     0.0774
     31 O         0.529775   -5.475127   5.465622 O.3        1 UNL1     -0.4436
     32 C         0.650605   -4.675778   4.27932 C.3        1 UNL1     0.3143
     33 C         -0.334972   -3.539827   4.464969 C.2        1 UNL1     0.2504
     34 C         -0.685149   -7.342425   7.247843 C.3        1 UNL1     -0.0327
     35 O         1.961206   -4.096547   4.287626 O.2        1 UNL1     -0.4528
     36 C         2.935197   -3.673722   0.643363 C.3        1 UNL1     0.0854
     37 C         2.194291   -2.879549   -0.500258 C.3        1 UNL1     0.0236
     38 C         3.090588   -1.781639   -1.250584 C.3        1 UNL1     0.1131
     39 C         3.898784   -0.716719   -0.404987 C.3        1 UNL1     0.0200
     40 C         3.187528   0.042908   0.898669 C.3        1 UNL1     0.0661
     41 C         1.670436   0.801881   0.900126 C.3        1 UNL1     0.0091
     42 C         0.428035   0.975655   2.238649 C.3        1 UNL1     0.0661
     43 C         -4.745206   -4.35467   6.805333 C.2        1 UNL1     0.2131
     44 O         -5.511769   -5.185543   7.257845 O.2        1 UNL1     -0.2851
     45 O         -3.369347   -6.434126   8.088982 O.3        1 UNL1     -0.5056
     46 O         -0.296844   -2.424736   3.994891 O.2        1 UNL1     -0.2836
     47 C         0.952184   1.848228   4.704759 C.3        1 UNL1     -0.0566
     48 O         0.217505   2.425745   2.010543 O.3        1 UNL1     -0.3909
     49 C         0.919967   0.394896   -0.348334 C.3        1 UNL1     -0.0577
     50 O         3.343813   -0.726865   2.073721 O.3        1 UNL1     -0.3910
     51 O         4.222388   -3.208938   0.981811 O.3        1 UNL1     -0.3753
     52 C         0.690077   -2.62928   -0.154345 C.3        1 UNL1     -0.0564
     53 O         2.49298   -1.297212   -2.539196 O.3        1 UNL1     -0.4608
     54 C         2.981197   -0.271887   -3.306192 C.2        1 UNL1     0.3042
     55 O         2.547217   0.876982   -3.381031 O.2        1 UNL1     -0.2512
     56 C         4.217922   -0.634396   -4.078081 C.3        1 UNL1     0.0332
     57 C         5.386439   -1.274831   -0.221766 C.3        1 UNL1     -0.0567
     58 C         0.175041   -5.561869   3.104497 C.3        1 UNL1     0.0210
     59 C         5.294105   -4.049799   0.557261 C.3        1 UNL1     0.0372
     60 C         2.175035   -3.797821   1.916907 C.2        1 UNL1     -0.0208
     61 C         2.571402   -3.633724   3.179726 C.2        1 UNL1     0.0882
     62 H         0.217461   -0.073411   4.111627 H        1 UNL1     0.0365
     63 H         -1.206909   -0.447533   5.526346 H        1 UNL1     0.0576
     64 H         -3.112137   1.953018   5.849207 H        1 UNL1     0.0615
     65 H         -3.06444   -0.907875   7.102552 H        1 UNL1     0.0622
     66 H         3.033862   -4.69549   0.25055 H        1 UNL1     0.0645
     67 H         2.051754   -3.629015   -1.298095 H        1 UNL1     0.0362
     68 H         3.852394   -2.439388   -1.696163 H        1 UNL1     0.0741
     69 H         4.16079   0.11246   -1.048589 H        1 UNL1     0.0359
     70 H         3.88586   0.89166   1.029096 H        1 UNL1     0.0600
     71 H         1.971767   1.8367   0.644574 H        1 UNL1     0.0348
     72 H         1.379546   0.739584   2.736859 H        1 UNL1     0.0602
     73 H         1.20813   -4.184642   1.710238 H        1 UNL1     0.0628
     74 H         3.522583   -3.189325   3.474686 H        1 UNL1     0.1022
     75 H         -6.005902   1.669127   8.316929 H        1 UNL1     0.0279
     76 H         -6.868103   0.910196   7.038674 H        1 UNL1     0.0279
     77 H         -6.808956   0.204128   8.703987 H        1 UNL1     0.0279
     78 H         -6.609756   -1.67002   6.483988 H        1 UNL1     0.1553
     79 H         -5.81195   -0.74276   4.925168 H        1 UNL1     0.1484
     80 H         -4.302354   -1.634647   1.553944 H        1 UNL1     0.0317
     81 H         -4.954088   -2.841997   2.652796 H        1 UNL1     0.0317
     82 H         -6.863807   -1.33583   3.267725 H        1 UNL1     0.0428
     83 H         -6.774829   -1.647611   1.548254 H        1 UNL1     0.0428
     84 H         -5.198368   2.068297   2.893594 H        1 UNL1     0.0428
     85 H         -5.888385   1.043453   4.103013 H        1 UNL1     0.0428
     86 H         -3.40308   1.020288   3.884892 H        1 UNL1     0.0317
     87 H         -3.450393   0.473972   2.271928 H        1 UNL1     0.0317
     88 H         -8.148433   0.591631   2.395377 H        1 UNL1     0.0429
     89 H         -7.290448   2.002783   1.771882 H        1 UNL1     0.0429
     90 H         -8.415199   -0.395588   0.348652 H        1 UNL1     0.0308
     91 H         -7.902344   2.537625   -0.379284 H        1 UNL1     0.0233
     92 H         -8.501248   1.339078   -1.554142 H        1 UNL1     0.0233
     93 H         -9.461428   1.754668   -0.150596 H        1 UNL1     0.0233
     94 H         -6.659996   0.00501   -1.529581 H        1 UNL1     0.0233
     95 H         -5.639771   0.584896   -0.203986 H        1 UNL1     0.0233
     96 H         -6.271971   -1.077502   -0.176637 H        1 UNL1     0.0233
     97 H         -0.340144   -7.91121   6.389539 H        1 UNL1     0.0280
     98 H         0.203608   -7.164175   7.867193 H        1 UNL1     0.0280
     99 H         -1.393399   -7.968282   7.8151 H        1 UNL1     0.0280
     100 H         -3.794365   -5.915854   8.74957 H        1 UNL1     0.2922
     101 H         1.832459   1.245804   4.928046 H        1 UNL1     0.0236
     102 H         0.586458   2.3792   5.582994 H        1 UNL1     0.0236
     103 H         1.318635   2.639907   4.030112 H        1 UNL1     0.0236
     104 H         -0.33895   2.52112   1.212902 H        1 UNL1     0.2098
     105 H         0.694908   1.215692   -1.024688 H        1 UNL1     0.0234
     106 H         1.364789   -0.435363   -0.896723 H        1 UNL1     0.0234
     107 H         0.0   -0.0   0.0 H        1 UNL1     0.0234
     108 H         2.600637   -0.50465   2.667083 H        1 UNL1     0.2098
     109 H         0.340039   -3.269756   0.667224 H        1 UNL1     0.0234
     110 H         0.470533   -1.581769   0.078603 H        1 UNL1     0.0234
     111 H         0.035737   -2.855193   -1.00684 H        1 UNL1     0.0234
     112 H         4.566318   0.230688   -4.650441 H        1 UNL1     0.0342
     113 H         5.005946   -1.018574   -3.432118 H        1 UNL1     0.0342
     114 H         3.956557   -1.427522   -4.792086 H        1 UNL1     0.0342
     115 H         5.474931   -2.318393   -0.553934 H        1 UNL1     0.0234
     116 H         6.14602   -0.696195   -0.751169 H        1 UNL1     0.0234
     117 H         5.697446   -1.360049   0.833674 H        1 UNL1     0.0234
     118 H         1.007732   -5.850651   2.439488 H        1 UNL1     0.0309
     119 H         -0.35089   -6.464139   3.432382 H        1 UNL1     0.0309
     120 H         -0.513424   -5.03649   2.433603 H        1 UNL1     0.0309
     121 H         6.135976   -3.874083   1.226391 H        1 UNL1     0.0524
     122 H         5.036759   -5.120163   0.621525 H        1 UNL1     0.0524
     123 H         5.573271   -3.815108   -0.466008 H        1 UNL1     0.0524
@<TRIPOS>BOND
     1     1     2    1
     2     1    42    1
     3     2     3    2
     4     3     4    1
     5     4     5    2
     6     5     7    1
     7     6    75    1
     8     6    76    1
     9     6    77    1
    10     7     9   am
    11     9    10    1
    12    10    11    2
    13    10    43    1
    14    11    14    1
    15    11    15    1
    16    12    13   ar
    17    12    27   ar
    18    12    43    1
    19    13    14    1
    20    13    30   ar
    21    14    17    2
    22    15    16    1
    23    16    17    1
    24    16    18    1
    25    16    22    1
    26    18    19    1
    27    19    20    1
    28    20    21    1
    29    21    22    1
    30    23    24    1
    31    23    88    1
    32    23    89    1
    33    24    25    1
    34    24    26    1
    35    24    90    1
    36    25    91    1
    37    25    92    1
    38    25    93    1
    39    26    94    1
    40    26    95    1
    41    26    96    1
    42    27    28   ar
    43    28    29   ar
    44    29    30   ar
    45    29    31    1
    46    30    33    1
    47    31    32    1
    48    32    33    1
    49    32    35    1
    50    34    97    1
    51    34    98    1
    52    34    99    1
    53    35    61    1
    54    36    37    1
    55    36    60    1
    56    37    38    1
    57    38    39    1
    58    39    40    1
    59    40    41    1
    60    41    42    1
    61    45   100    1
    62    47   101    1
    63    47   102    1
    64    47   103    1
    65    48   104    1
    66    49   105    1
    67    49   106    1
    68    49   107    1
    69    50   108    1
    70    51    59    1
    71    52   109    1
    72    52   110    1
    73    52   111    1
    74    53    54    1
    75    54    55    2
    76    54    56    1
    77    56   112    1
    78    56   113    1
    79    56   114    1
    80    57   115    1
    81    57   116    1
    82    57   117    1
    83    58   118    1
    84    58   119    1
    85    58   120    1
    86    59   121    1
    87    59   122    1
    88    59   123    1
    89    60    61    2
    90     1    47    1
    91     1    62    1
    92     2    63    1
    93     3    64    1
    94     4    65    1
    95     5     6    1
    96     7     8    2
    97     9    78    1
    98    15    79    1
    99    18    80    1
   100    18    81    1
   101    19    82    1
   102    19    83    1
   103    20    23    1
   104    21    84    1
   105    21    85    1
   106    22    86    1
   107    22    87    1
   108    27    45    1
   109    28    34    1
   110    32    58    1
   111    33    46    2
   112    36    51    1
   113    36    66    1
   114    37    52    1
   115    37    67    1
   116    38    53    1
   117    38    68    1
   118    42    48    1
   119    42    72    1
   120    43    44    2
   121    60    73    1
   122    61    74    1
   123    39    69    1
   124    39    57    1
   125    40    70    1
   126    40    50    1
   127    41    71    1
   128    41    49    1
