@<TRIPOS>MOLECULE
*****
 123 128 0 0 0
SMALL
GASTEIGER

@<TRIPOS>ATOM
     1 C         -5.300072   0.674015   0.222864 C.3        1 UNL1     0.0009
     2 C         -6.811084   1.231726   -0.695198 C.2        1 UNL1     -0.0787
     3 C         -7.737539   2.278996   -1.070637 C.2        1 UNL1     -0.0649
     4 C         -9.022575   2.186947   -2.169075 C.2        1 UNL1     -0.0542
     5 C         -9.900218   2.93245   -2.99433 C.2        1 UNL1     0.0115
     6 C         -10.390197   4.36681   -3.334704 C.3        1 UNL1     -0.0348
     7 C         -10.684423   2.178655   -4.174925 C.2        1 UNL1     0.2441
     8 O         -11.862033   1.857745   -4.092604 O.2        1 UNL1     -0.2702
     9 N         -10.0053   2.14484   -5.405291 N.am        1 UNL1     -0.2772
     10 C         -9.182726   1.04368   -5.469646 C.2        1 UNL1     0.1049
     11 C         -8.000056   1.166246   -4.894762 C.2        1 UNL1     0.0801
     12 C         -9.14788   -1.430389   -5.102081 C.ar        1 UNL1     0.0753
     13 C         -7.97603   -1.217029   -4.308447 C.ar        1 UNL1     0.0305
     14 C         -7.289951   0.07291   -4.288343 C.2        1 UNL1     0.0924
     15 N         -7.373801   2.261879   -4.432248 N.pl3        1 UNL1     -0.3170
     16 C         -6.037834   1.879691   -4.058911 C.3        1 UNL1     0.1275
     17 N         -6.149954   0.41881   -3.696999 N.2        1 UNL1     -0.2557
     18 C         -5.181431   1.938995   -5.320164 C.3        1 UNL1     0.0016
     19 C         -5.291848   3.33259   -5.917903 C.3        1 UNL1     0.0026
     20 N         -4.838308   4.302351   -4.930536 N.3        1 UNL1     -0.3018
     21 C         -5.562691   4.279285   -3.658096 C.3        1 UNL1     0.0026
     22 C         -5.434697   2.871681   -3.073148 C.3        1 UNL1     0.0016
     23 C         -4.620017   5.620069   -5.493219 C.3        1 UNL1     0.0012
     24 C         -3.444208   5.595288   -6.482469 C.3        1 UNL1     -0.0339
     25 C         -3.202201   6.981009   -7.103167 C.3        1 UNL1     -0.0615
     26 C         -2.19745   5.064644   -5.796327 C.3        1 UNL1     -0.0615
     27 C         -9.725784   -2.69304   -5.210967 C.ar        1 UNL1     0.1347
     28 C         -9.200975   -3.821676   -4.606974 C.ar        1 UNL1     0.0342
     29 C         -8.075485   -3.578654   -3.791268 C.ar        1 UNL1     0.1435
     30 C         -7.507049   -2.312818   -3.643755 C.ar        1 UNL1     0.0774
     31 O         -7.384512   -4.591349   -3.223806 O.3        1 UNL1     -0.4436
     32 C         -6.106332   -4.022604   -2.901847 C.3        1 UNL1     0.3143
     33 C         -6.351071   -2.530689   -2.799354 C.2        1 UNL1     0.2504
     34 C         -9.615147   -5.240924   -4.879546 C.3        1 UNL1     -0.0327
     35 O         -5.755391   -4.478919   -1.589647 O.2        1 UNL1     -0.4528
     36 C         -1.963463   -4.636482   -1.522192 C.3        1 UNL1     0.0854
     37 C         -0.913645   -3.493209   -1.80207 C.3        1 UNL1     0.0236
     38 C         0.149336   -3.249122   -0.626384 C.3        1 UNL1     0.1131
     39 C         -0.355234   -3.051839   0.859805 C.3        1 UNL1     0.0200
     40 C         -1.671461   -2.079499   1.183129 C.3        1 UNL1     0.0661
     41 C         -1.902081   -0.497994   0.614564 C.3        1 UNL1     0.0091
     42 C         -3.443294   0.398462   0.182786 C.3        1 UNL1     0.0661
     43 C         -9.675704   -0.280359   -5.877382 C.2        1 UNL1     0.2131
     44 O         -10.387656   -0.399701   -6.858004 O.2        1 UNL1     -0.2851
     45 O         -10.891208   -2.806133   -5.966239 O.3        1 UNL1     -0.5056
     46 O         -5.742633   -1.710178   -2.149418 O.2        1 UNL1     -0.2836
     47 C         -5.602362   0.562198   1.741448 C.3        1 UNL1     -0.0566
     48 O         -3.079102   1.621058   0.938921 O.3        1 UNL1     -0.3909
     49 C         -0.909459   -0.22845   -0.494283 C.3        1 UNL1     -0.0577
     50 O         -2.874962   -2.812549   1.073823 O.3        1 UNL1     -0.3910
     51 O         -1.951944   -5.178329   -0.22077 O.3        1 UNL1     -0.3753
     52 C         -1.541079   -2.313081   -2.613597 C.3        1 UNL1     -0.0564
     53 O         1.330065   -2.423309   -1.046191 O.3        1 UNL1     -0.4608
     54 C         1.270157   -1.257821   -1.764507 C.2        1 UNL1     0.3042
     55 O         0.350687   -0.870756   -2.484642 O.2        1 UNL1     -0.2512
     56 C         2.46468   -0.368286   -1.568152 C.3        1 UNL1     0.0332
     57 C         -0.283492   -4.474899   1.586393 C.3        1 UNL1     -0.0567
     58 C         -5.18795   -4.295252   -4.115835 C.3        1 UNL1     0.0210
     59 C         -3.233961   -5.281098   0.397078 C.3        1 UNL1     0.0372
     60 C         -3.376324   -4.281173   -1.826726 C.2        1 UNL1     -0.0208
     61 C         -4.491089   -4.491971   -1.125578 C.2        1 UNL1     0.0882
     62 H         -5.437853   -0.329138   -0.198339 H        1 UNL1     0.0365
     63 H         -7.163568   0.282067   -1.103085 H        1 UNL1     0.0576
     64 H         -7.57515   3.318813   -0.778201 H        1 UNL1     0.0615
     65 H         -9.150465   1.113235   -2.331155 H        1 UNL1     0.0622
     66 H         -1.695226   -5.4361   -2.226966 H        1 UNL1     0.0645
     67 H         -0.270189   -3.908813   -2.596926 H        1 UNL1     0.0362
     68 H         0.659512   -4.224407   -0.634267 H        1 UNL1     0.0741
     69 H         0.432259   -2.584037   1.435499 H        1 UNL1     0.0359
     70 H         -1.535982   -1.9309   2.271533 H        1 UNL1     0.0600
     71 H         -1.454749   0.075024   1.450328 H        1 UNL1     0.0348
     72 H         -3.75032   -0.442138   0.821881 H        1 UNL1     0.0602
     73 H         -3.435912   -3.904375   -2.817544 H        1 UNL1     0.0628
     74 H         -4.512827   -4.820254   -0.085869 H        1 UNL1     0.1022
     75 H         -10.855215   4.845056   -2.439119 H        1 UNL1     0.0279
     76 H         -9.624844   5.087362   -3.614182 H        1 UNL1     0.0279
     77 H         -11.230644   4.371943   -4.044157 H        1 UNL1     0.0279
     78 H         -9.41813   2.971467   -5.49471 H        1 UNL1     0.1553
     79 H         -7.616407   3.197552   -4.701675 H        1 UNL1     0.1484
     80 H         -4.144189   1.695899   -5.059778 H        1 UNL1     0.0317
     81 H         -5.505767   1.1885   -6.049009 H        1 UNL1     0.0317
     82 H         -6.317502   3.553917   -6.247994 H        1 UNL1     0.0428
     83 H         -4.675158   3.352285   -6.816989 H        1 UNL1     0.0428
     84 H         -5.151551   4.960804   -2.906892 H        1 UNL1     0.0428
     85 H         -6.604604   4.608077   -3.774847 H        1 UNL1     0.0428
     86 H         -5.859012   2.927889   -2.087863 H        1 UNL1     0.0317
     87 H         -4.379773   2.639703   -2.882314 H        1 UNL1     0.0317
     88 H         -5.527627   5.914118   -6.036426 H        1 UNL1     0.0429
     89 H         -4.459655   6.36817   -4.706197 H        1 UNL1     0.0429
     90 H         -3.667572   4.885959   -7.288183 H        1 UNL1     0.0308
     91 H         -2.655203   7.634249   -6.416747 H        1 UNL1     0.0233
     92 H         -2.64261   6.893431   -8.037403 H        1 UNL1     0.0233
     93 H         -4.137768   7.495349   -7.354175 H        1 UNL1     0.0233
     94 H         -1.301261   5.399257   -6.329915 H        1 UNL1     0.0233
     95 H         -2.142857   5.446616   -4.773058 H        1 UNL1     0.0233
     96 H         -2.193443   3.971476   -5.765728 H        1 UNL1     0.0233
     97 H         -9.010658   -5.954846   -4.328058 H        1 UNL1     0.0280
     98 H         -10.65411   -5.433317   -4.581556 H        1 UNL1     0.0280
     99 H         -9.508756   -5.456272   -5.955372 H        1 UNL1     0.0280
     100 H         -11.038467   -3.660003   -6.333449 H        1 UNL1     0.2922
     101 H         -5.526572   1.545668   2.204804 H        1 UNL1     0.0236
     102 H         -4.983601   -0.177511   2.248348 H        1 UNL1     0.0236
     103 H         -6.6395   0.240961   1.934699 H        1 UNL1     0.0236
     104 H         -2.192931   1.476332   1.324571 H        1 UNL1     0.2098
     105 H         -0.727799   -1.076079   -1.150283 H        1 UNL1     0.0234
     106 H         -1.114623   0.666543   -1.081498 H        1 UNL1     0.0234
     107 H         0.0   0.0   0.0 H        1 UNL1     0.0234
     108 H         -2.97639   -3.328121   1.897028 H        1 UNL1     0.2098
     109 H         -2.601839   -2.484421   -2.844124 H        1 UNL1     0.0234
     110 H         -1.425558   -1.34206   -2.120123 H        1 UNL1     0.0234
     111 H         -1.043904   -2.179546   -3.583613 H        1 UNL1     0.0234
     112 H         2.535583   0.347096   -2.393105 H        1 UNL1     0.0342
     113 H         2.440207   0.144178   -0.607618 H        1 UNL1     0.0342
     114 H         3.366517   -0.995554   -1.587889 H        1 UNL1     0.0342
     115 H         -0.0449   -5.282321   0.880468 H        1 UNL1     0.0234
     116 H         0.444973   -4.522618   2.398249 H        1 UNL1     0.0234
     117 H         -1.255808   -4.817011   1.980731 H        1 UNL1     0.0234
     118 H         -4.122281   -4.332215   -3.829497 H        1 UNL1     0.0309
     119 H         -5.446636   -5.213499   -4.652591 H        1 UNL1     0.0309
     120 H         -5.222262   -3.490247   -4.858059 H        1 UNL1     0.0309
     121 H         -3.739716   -4.324572   0.268132 H        1 UNL1     0.0524
     122 H         -3.863587   -6.055415   -0.072009 H        1 UNL1     0.0524
     123 H         -3.124798   -5.507924   1.453831 H        1 UNL1     0.0524
@<TRIPOS>BOND
     1     1     2    1
     2     1    42    1
     3     2     3    2
     4     3     4    1
     5     4     5    2
     6     5     7    1
     7     6    75    1
     8     6    76    1
     9     6    77    1
    10     7     9   am
    11     9    10    1
    12    10    11    2
    13    10    43    1
    14    11    14    1
    15    11    15    1
    16    12    13   ar
    17    12    27   ar
    18    12    43    1
    19    13    14    1
    20    13    30   ar
    21    14    17    2
    22    15    16    1
    23    16    17    1
    24    16    18    1
    25    16    22    1
    26    18    19    1
    27    19    20    1
    28    20    21    1
    29    21    22    1
    30    23    24    1
    31    23    88    1
    32    23    89    1
    33    24    25    1
    34    24    26    1
    35    24    90    1
    36    25    91    1
    37    25    92    1
    38    25    93    1
    39    26    94    1
    40    26    95    1
    41    26    96    1
    42    27    28   ar
    43    28    29   ar
    44    29    30   ar
    45    29    31    1
    46    30    33    1
    47    31    32    1
    48    32    33    1
    49    32    35    1
    50    34    97    1
    51    34    98    1
    52    34    99    1
    53    35    61    1
    54    36    37    1
    55    36    60    1
    56    37    38    1
    57    38    39    1
    58    39    40    1
    59    40    41    1
    60    41    42    1
    61    45   100    1
    62    47   101    1
    63    47   102    1
    64    47   103    1
    65    48   104    1
    66    49   105    1
    67    49   106    1
    68    49   107    1
    69    50   108    1
    70    51    59    1
    71    52   109    1
    72    52   110    1
    73    52   111    1
    74    53    54    1
    75    54    55    2
    76    54    56    1
    77    56   112    1
    78    56   113    1
    79    56   114    1
    80    57   115    1
    81    57   116    1
    82    57   117    1
    83    58   118    1
    84    58   119    1
    85    58   120    1
    86    59   121    1
    87    59   122    1
    88    59   123    1
    89    60    61    2
    90     1    47    1
    91     1    62    1
    92     2    63    1
    93     3    64    1
    94     4    65    1
    95     5     6    1
    96     7     8    2
    97     9    78    1
    98    15    79    1
    99    18    80    1
   100    18    81    1
   101    19    82    1
   102    19    83    1
   103    20    23    1
   104    21    84    1
   105    21    85    1
   106    22    86    1
   107    22    87    1
   108    27    45    1
   109    28    34    1
   110    32    58    1
   111    33    46    2
   112    36    51    1
   113    36    66    1
   114    37    52    1
   115    37    67    1
   116    38    53    1
   117    38    68    1
   118    42    48    1
   119    42    72    1
   120    43    44    2
   121    60    73    1
   122    61    74    1
   123    39    69    1
   124    39    57    1
   125    40    70    1
   126    40    50    1
   127    41    71    1
   128    41    49    1
