@<TRIPOS>MOLECULE
*****
 123 128 0 0 0
SMALL
GASTEIGER

@<TRIPOS>ATOM
     1 C         5.184227   1.671059   0.574998 C.3        1 UNL1     0.0009
     2 C         6.648183   2.450466   -0.253492 C.2        1 UNL1     -0.0787
     3 C         7.940008   2.329038   -0.895746 C.2        1 UNL1     -0.0649
     4 C         8.849877   3.546547   -1.641513 C.2        1 UNL1     -0.0542
     5 C         9.890859   3.818558   -2.563165 C.2        1 UNL1     0.0115
     6 C         11.024389   3.171301   -3.405478 C.3        1 UNL1     -0.0348
     7 C         10.020051   5.29704   -3.175041 C.2        1 UNL1     0.2441
     8 O         10.849787   6.107752   -2.786698 O.2        1 UNL1     -0.2702
     9 N         9.294071   5.509609   -4.359911 N.am        1 UNL1     -0.2772
     10 C         8.012159   5.917706   -4.07098 C.2        1 UNL1     0.1049
     11 C         7.146293   4.961012   -3.789496 C.2        1 UNL1     0.0801
     12 C         6.714075   7.551464   -2.691435 C.ar        1 UNL1     0.0753
     13 C         5.92971   6.437741   -2.252117 C.ar        1 UNL1     0.0305
     14 C         6.037746   5.127102   -2.888989 C.2        1 UNL1     0.0924
     15 N         7.251009   3.629498   -3.939939 N.pl3        1 UNL1     -0.3170
     16 C         5.966589   3.051678   -3.645588 C.3        1 UNL1     0.1275
     17 N         5.327825   4.021652   -2.681817 N.2        1 UNL1     -0.2557
     18 C         5.137361   3.117484   -4.924554 C.3        1 UNL1     0.0016
     19 C         5.901438   2.416021   -6.036185 C.3        1 UNL1     0.0026
     20 N         6.143184   1.035893   -5.638902 N.3        1 UNL1     -0.3018
     21 C         6.881801   0.870038   -4.385384 C.3        1 UNL1     0.0026
     22 C         6.094101   1.578259   -3.281823 C.3        1 UNL1     0.0016
     23 C         6.594528   0.203905   -6.736503 C.3        1 UNL1     0.0012
     24 C         5.452976   -0.032669   -7.737827 C.3        1 UNL1     -0.0339
     25 C         5.514853   0.964021   -8.906945 C.3        1 UNL1     -0.0615
     26 C         5.478847   -1.470337   -8.226931 C.3        1 UNL1     -0.0615
     27 C         6.519623   8.824919   -2.1617 C.ar        1 UNL1     0.1347
     28 C         5.547967   9.114194   -1.220289 C.ar        1 UNL1     0.0342
     29 C         4.82075   7.993114   -0.766968 C.ar        1 UNL1     0.1435
     30 C         5.02915   6.705273   -1.262201 C.ar        1 UNL1     0.0774
     31 O         3.766649   8.127153   0.067244 O.3        1 UNL1     -0.4436
     32 C         3.0285   6.904945   -0.081805 C.3        1 UNL1     0.3143
     33 C         4.035505   5.893557   -0.590969 C.2        1 UNL1     0.2504
     34 C         5.114698   10.489291   -0.794278 C.3        1 UNL1     -0.0327
     35 O         2.637772   6.480625   1.229888 O.2        1 UNL1     -0.4528
     36 C         -0.62741   4.596884   0.784702 C.3        1 UNL1     0.0854
     37 C         -0.936318   3.3366   -0.111838 C.3        1 UNL1     0.0236
     38 C         -1.570346   2.089059   0.671357 C.3        1 UNL1     0.1131
     39 C         -0.876182   1.553622   1.988063 C.3        1 UNL1     0.0200
     40 C         0.781548   1.382583   2.059573 C.3        1 UNL1     0.0661
     41 C         1.749442   0.593011   0.911806 C.3        1 UNL1     0.0091
     42 C         3.472219   0.926188   0.376611 C.3        1 UNL1     0.0661
     43 C         7.680533   7.323334   -3.794239 C.2        1 UNL1     0.2131
     44 O         8.107057   8.211418   -4.509865 O.2        1 UNL1     -0.2851
     45 O         7.35593   9.844961   -2.610636 O.3        1 UNL1     -0.5056
     46 O         4.030421   4.690605   -0.454093 O.2        1 UNL1     -0.2836
     47 C         5.548239   1.242874   2.02211 C.3        1 UNL1     -0.0566
     48 O         3.897227   -0.491257   0.47323 O.3        1 UNL1     -0.3909
     49 C         0.933893   0.367014   -0.341709 C.3        1 UNL1     -0.0577
     50 O         1.393569   2.593003   2.457112 O.3        1 UNL1     -0.3910
     51 O         -0.779136   4.416291   2.174593 O.3        1 UNL1     -0.3753
     52 C         0.12582   3.154065   -1.244752 C.3        1 UNL1     -0.0564
     53 O         -2.172979   1.054931   -0.234038 O.3        1 UNL1     -0.4608
     54 C         -2.421584   -0.249722   0.103608 C.2        1 UNL1     0.3042
     55 O         -1.857088   -1.253735   -0.32899 O.2        1 UNL1     -0.2512
     56 C         -3.472624   -0.406328   1.165448 C.3        1 UNL1     0.0332
     57 C         -1.608993   2.240163   3.232982 C.3        1 UNL1     -0.0567
     58 C         1.97668   7.161093   -1.186157 C.3        1 UNL1     0.0210
     59 C         -1.117975   5.597882   2.899091 C.3        1 UNL1     0.0372
     60 C         0.71511   5.204118   0.57478 C.2        1 UNL1     -0.0208
     61 C         1.619128   5.629614   1.458211 C.2        1 UNL1     0.0882
     62 H         4.72222   2.66292   0.648982 H        1 UNL1     0.0365
     63 H         6.396555   3.508789   -0.158072 H        1 UNL1     0.0576
     64 H         8.3864   1.354094   -1.103897 H        1 UNL1     0.0615
     65 H         8.37103   4.471146   -1.307888 H        1 UNL1     0.0622
     66 H         -1.354714   5.353254   0.457623 H        1 UNL1     0.0645
     67 H         -1.785949   3.656193   -0.739968 H        1 UNL1     0.0362
     68 H         -2.516593   2.542352   1.004019 H        1 UNL1     0.0741
     69 H         -1.226834   0.548797   2.182429 H        1 UNL1     0.0359
     70 H         0.867356   0.725134   2.945833 H        1 UNL1     0.0600
     71 H         1.769523   -0.426501   1.344413 H        1 UNL1     0.0348
     72 H         3.356575   1.420999   1.351857 H        1 UNL1     0.0602
     73 H         0.854453   5.394192   -0.460451 H        1 UNL1     0.0628
     74 H         1.579307   5.424745   2.528575 H        1 UNL1     0.1022
     75 H         11.048922   2.066266   -3.246323 H        1 UNL1     0.0279
     76 H         10.93123   3.250299   -4.486288 H        1 UNL1     0.0279
     77 H         12.02813   3.462074   -3.062469 H        1 UNL1     0.0279
     78 H         9.227854   4.638041   -4.881506 H        1 UNL1     0.1553
     79 H         7.920389   3.188088   -4.543281 H        1 UNL1     0.1484
     80 H         4.165252   2.642503   -4.745209 H        1 UNL1     0.0317
     81 H         4.931779   4.156217   -5.204591 H        1 UNL1     0.0317
     82 H         6.844522   2.931562   -6.270114 H        1 UNL1     0.0428
     83 H         5.293153   2.476259   -6.939186 H        1 UNL1     0.0428
     84 H         6.980349   -0.17305   -4.069052 H        1 UNL1     0.0428
     85 H         7.919183   1.221533   -4.472604 H        1 UNL1     0.0428
     86 H         6.590356   1.324596   -2.363469 H        1 UNL1     0.0317
     87 H         5.105267   1.116501   -3.1719 H        1 UNL1     0.0317
     88 H         7.408172   0.730588   -7.25214 H        1 UNL1     0.0429
     89 H         7.006037   -0.746639   -6.373323 H        1 UNL1     0.0429
     90 H         4.4926   0.091518   -7.223563 H        1 UNL1     0.0308
     91 H         6.472446   0.901632   -9.432517 H        1 UNL1     0.0233
     92 H         4.70412   0.77908   -9.615547 H        1 UNL1     0.0233
     93 H         5.400669   2.00342   -8.576118 H        1 UNL1     0.0233
     94 H         4.79558   -1.593408   -9.074183 H        1 UNL1     0.0233
     95 H         6.485474   -1.731972   -8.564883 H        1 UNL1     0.0233
     96 H         5.179548   -2.165766   -7.437776 H        1 UNL1     0.0233
     97 H         4.307668   10.45561   -0.068469 H        1 UNL1     0.0280
     98 H         5.927779   11.04908   -0.313871 H        1 UNL1     0.0280
     99 H         4.765363   11.055064   -1.673461 H        1 UNL1     0.0280
     100 H         6.906453   10.600781   -2.94579 H        1 UNL1     0.2922
     101 H         4.669943   0.825253   2.513888 H        1 UNL1     0.0236
     102 H         6.00116   2.044107   2.605094 H        1 UNL1     0.0236
     103 H         6.291794   0.428592   2.038402 H        1 UNL1     0.0236
     104 H         4.299172   -0.619234   1.354725 H        1 UNL1     0.2098
     105 H         0.745485   1.26607   -0.923097 H        1 UNL1     0.0234
     106 H         1.302552   -0.43   -0.9873 H        1 UNL1     0.0234
     107 H         0.0   -0.0   0.0 H        1 UNL1     0.0234
     108 H         1.217642   3.250673   1.756907 H        1 UNL1     0.2098
     109 H         1.141851   3.026689   -0.845795 H        1 UNL1     0.0234
     110 H         -0.107379   2.327179   -1.924179 H        1 UNL1     0.0234
     111 H         0.172346   4.033074   -1.901353 H        1 UNL1     0.0234
     112 H         -3.61624   -1.466878   1.393385 H        1 UNL1     0.0342
     113 H         -3.232712   0.157744   2.065508 H        1 UNL1     0.0342
     114 H         -4.420394   -0.015425   0.770365 H        1 UNL1     0.0342
     115 H         -2.67796   1.98852   3.267221 H        1 UNL1     0.0234
     116 H         -1.178665   1.977598   4.201449 H        1 UNL1     0.0234
     117 H         -1.651236   3.340938   3.166254 H        1 UNL1     0.0234
     118 H         1.076122   7.66401   -0.792361 H        1 UNL1     0.0309
     119 H         2.370127   7.738923   -2.028484 H        1 UNL1     0.0309
     120 H         1.581246   6.233088   -1.613411 H        1 UNL1     0.0309
     121 H         -0.3003   6.307188   2.773992 H        1 UNL1     0.0524
     122 H         -2.034126   6.076191   2.51448 H        1 UNL1     0.0524
     123 H         -1.256042   5.366832   3.951539 H        1 UNL1     0.0524
@<TRIPOS>BOND
     1     1     2    1
     2     1    42    1
     3     2     3    2
     4     3     4    1
     5     4     5    2
     6     5     7    1
     7     6    75    1
     8     6    76    1
     9     6    77    1
    10     7     9   am
    11     9    10    1
    12    10    11    2
    13    10    43    1
    14    11    14    1
    15    11    15    1
    16    12    13   ar
    17    12    27   ar
    18    12    43    1
    19    13    14    1
    20    13    30   ar
    21    14    17    2
    22    15    16    1
    23    16    17    1
    24    16    18    1
    25    16    22    1
    26    18    19    1
    27    19    20    1
    28    20    21    1
    29    21    22    1
    30    23    24    1
    31    23    88    1
    32    23    89    1
    33    24    25    1
    34    24    26    1
    35    24    90    1
    36    25    91    1
    37    25    92    1
    38    25    93    1
    39    26    94    1
    40    26    95    1
    41    26    96    1
    42    27    28   ar
    43    28    29   ar
    44    29    30   ar
    45    29    31    1
    46    30    33    1
    47    31    32    1
    48    32    33    1
    49    32    35    1
    50    34    97    1
    51    34    98    1
    52    34    99    1
    53    35    61    1
    54    36    37    1
    55    36    60    1
    56    37    38    1
    57    38    39    1
    58    39    40    1
    59    40    41    1
    60    41    42    1
    61    45   100    1
    62    47   101    1
    63    47   102    1
    64    47   103    1
    65    48   104    1
    66    49   105    1
    67    49   106    1
    68    49   107    1
    69    50   108    1
    70    51    59    1
    71    52   109    1
    72    52   110    1
    73    52   111    1
    74    53    54    1
    75    54    55    2
    76    54    56    1
    77    56   112    1
    78    56   113    1
    79    56   114    1
    80    57   115    1
    81    57   116    1
    82    57   117    1
    83    58   118    1
    84    58   119    1
    85    58   120    1
    86    59   121    1
    87    59   122    1
    88    59   123    1
    89    60    61    2
    90     1    47    1
    91     1    62    1
    92     2    63    1
    93     3    64    1
    94     4    65    1
    95     5     6    1
    96     7     8    2
    97     9    78    1
    98    15    79    1
    99    18    80    1
   100    18    81    1
   101    19    82    1
   102    19    83    1
   103    20    23    1
   104    21    84    1
   105    21    85    1
   106    22    86    1
   107    22    87    1
   108    27    45    1
   109    28    34    1
   110    32    58    1
   111    33    46    2
   112    36    51    1
   113    36    66    1
   114    37    52    1
   115    37    67    1
   116    38    53    1
   117    38    68    1
   118    42    48    1
   119    42    72    1
   120    43    44    2
   121    60    73    1
   122    61    74    1
   123    39    69    1
   124    39    57    1
   125    40    70    1
   126    40    50    1
   127    41    71    1
   128    41    49    1
