@<TRIPOS>MOLECULE
*****
 123 128 0 0 0
SMALL
GASTEIGER

@<TRIPOS>ATOM
     1 C         3.227839   -1.492101   -2.127998 C.3        1 UNL1     0.0009
     2 C         4.205703   -0.66922   -3.471012 C.2        1 UNL1     -0.0787
     3 C         4.433287   -0.402304   -4.87565 C.2        1 UNL1     -0.0649
     4 C         5.562109   0.654936   -5.564387 C.2        1 UNL1     -0.0542
     5 C         5.904154   1.393635   -6.723873 C.2        1 UNL1     0.0115
     6 C         5.556811   1.612793   -8.222088 C.3        1 UNL1     -0.0348
     7 C         6.958054   2.59767   -6.595098 C.2        1 UNL1     0.2441
     8 O         8.127526   2.498094   -6.939986 O.2        1 UNL1     -0.2702
     9 N         6.389045   3.849967   -6.305042 N.am        1 UNL1     -0.2772
     10 C         6.274195   4.021738   -4.944665 C.2        1 UNL1     0.1049
     11 C         5.21136   3.480655   -4.377362 C.2        1 UNL1     0.0801
     12 C         7.558574   3.83461   -2.806281 C.ar        1 UNL1     0.0753
     13 C         6.458765   3.068567   -2.304079 C.ar        1 UNL1     0.0305
     14 C         5.193723   2.97935   -3.029861 C.2        1 UNL1     0.0924
     15 N         4.103929   2.962362   -4.935481 N.pl3        1 UNL1     -0.3170
     16 C         3.176686   2.663798   -3.87655 C.3        1 UNL1     0.1275
     17 N         4.048912   2.404315   -2.672551 N.2        1 UNL1     -0.2557
     18 C         2.40772   3.946295   -3.573908 C.3        1 UNL1     0.0016
     19 C         1.757773   4.438021   -4.857405 C.3        1 UNL1     0.0026
     20 N         0.868179   3.399651   -5.358842 N.3        1 UNL1     -0.3018
     21 C         1.506081   2.107946   -5.62142 C.3        1 UNL1     0.0026
     22 C         2.148429   1.630586   -4.317805 C.3        1 UNL1     0.0016
     23 C         -0.020038   3.87323   -6.401645 C.3        1 UNL1     0.0012
     24 C         -1.485446   3.606619   -6.023155 C.3        1 UNL1     -0.0339
     25 C         -2.452667   4.267942   -7.018741 C.3        1 UNL1     -0.0615
     26 C         -1.731403   2.111852   -5.913814 C.3        1 UNL1     -0.0615
     27 C         8.716626   4.014091   -2.053407 C.ar        1 UNL1     0.1347
     28 C         8.874818   3.511354   -0.774235 C.ar        1 UNL1     0.0342
     29 C         7.79881   2.719576   -0.319859 C.ar        1 UNL1     0.1435
     30 C         6.647445   2.501034   -1.077367 C.ar        1 UNL1     0.0774
     31 O         7.754332   2.25064   0.946288 O.3        1 UNL1     -0.4436
     32 C         6.371875   1.932857   1.166968 C.3        1 UNL1     0.3143
     33 C         5.789997   1.714875   -0.215101 C.2        1 UNL1     0.2504
     34 C         9.975509   3.870917   0.184563 C.3        1 UNL1     -0.0327
     35 O         6.327664   0.669788   1.842211 O.2        1 UNL1     -0.4528
     36 C         3.195794   0.744667   3.985544 C.3        1 UNL1     0.0854
     37 C         1.697291   0.977575   3.552228 C.3        1 UNL1     0.0236
     38 C         0.676938   -0.175267   4.001204 C.3        1 UNL1     0.1131
     39 C         1.013588   -1.688316   3.685581 C.3        1 UNL1     0.0200
     40 C         1.617657   -2.125984   2.193607 C.3        1 UNL1     0.0661
     41 C         0.970367   -1.681009   0.690071 C.3        1 UNL1     0.0091
     42 C         1.798721   -1.368282   -0.916613 C.3        1 UNL1     0.0661
     43 C         7.39008   4.506465   -4.118714 C.2        1 UNL1     0.2131
     44 O         8.048377   5.467993   -4.472047 O.2        1 UNL1     -0.2851
     45 O         9.75821   4.734899   -2.633904 O.3        1 UNL1     -0.5056
     46 O         4.845094   1.028943   -0.535273 O.2        1 UNL1     -0.2836
     47 C         3.556972   -3.00822   -2.072889 C.3        1 UNL1     -0.0566
     48 O         0.848903   -2.197436   -1.697295 O.3        1 UNL1     -0.3909
     49 C         -0.024147   -0.560864   0.899148 C.3        1 UNL1     -0.0577
     50 O         3.025714   -2.005775   2.168129 O.3        1 UNL1     -0.3910
     51 O         3.484663   -0.51321   4.552759 O.3        1 UNL1     -0.3753
     52 C         1.597008   1.679939   2.158823 C.3        1 UNL1     -0.0564
     53 O         -0.765661   0.224488   3.894287 O.3        1 UNL1     -0.4608
     54 C         -1.691233   0.13874   4.90121 C.2        1 UNL1     0.3042
     55 O         -2.277599   -0.869559   5.292803 O.2        1 UNL1     -0.2512
     56 C         -1.935976   1.442745   5.605756 C.3        1 UNL1     0.0332
     57 C         1.713093   -2.307692   4.983749 C.3        1 UNL1     -0.0567
     58 C         5.726619   3.19427   1.786656 C.3        1 UNL1     0.0210
     59 C         2.345596   -1.338262   4.792924 C.3        1 UNL1     0.0372
     60 C         4.203104   0.973929   2.914131 C.2        1 UNL1     -0.0208
     61 C         5.266455   0.251743   2.558494 C.2        1 UNL1     0.0882
     62 H         3.872369   -1.004795   -1.386496 H        1 UNL1     0.0365
     63 H         5.004102   -0.206443   -2.887175 H        1 UNL1     0.0576
     64 H         3.747317   -0.763043   -5.645338 H        1 UNL1     0.0615
     65 H         6.237938   0.889365   -4.737477 H        1 UNL1     0.0622
     66 H         3.38563   1.513993   4.747217 H        1 UNL1     0.0645
     67 H         1.364666   1.822   4.180613 H        1 UNL1     0.0362
     68 H         0.760852   -0.079621   5.094517 H        1 UNL1     0.0741
     69 H         0.103019   -2.268682   3.752259 H        1 UNL1     0.0359
     70 H         1.433728   -3.216939   2.225978 H        1 UNL1     0.0600
     71 H         0.294866   -2.53992   0.508611 H        1 UNL1     0.0348
     72 H         2.510117   -1.955428   -0.317872 H        1 UNL1     0.0602
     73 H         4.045205   1.932413   2.485616 H        1 UNL1     0.0628
     74 H         5.468061   -0.761772   2.906889 H        1 UNL1     0.1022
     75 H         5.879772   0.734789   -8.831875 H        1 UNL1     0.0279
     76 H         4.500448   1.693268   -8.468443 H        1 UNL1     0.0279
     77 H         6.143133   2.422588   -8.680518 H        1 UNL1     0.0279
     78 H         5.452356   3.899858   -6.700266 H        1 UNL1     0.1553
     79 H         3.811604   3.155221   -5.875845 H        1 UNL1     0.1484
     80 H         1.659134   3.740009   -2.799419 H        1 UNL1     0.0317
     81 H         3.07388   4.715643   -3.168957 H        1 UNL1     0.0317
     82 H         2.507442   4.715757   -5.612899 H        1 UNL1     0.0428
     83 H         1.216316   5.35409   -4.619306 H        1 UNL1     0.0428
     84 H         0.803042   1.324269   -5.920413 H        1 UNL1     0.0428
     85 H         2.214509   2.164727   -6.459408 H        1 UNL1     0.0428
     86 H         2.487289   0.629764   -4.511503 H        1 UNL1     0.0317
     87 H         1.378337   1.493439   -3.54888 H        1 UNL1     0.0317
     88 H         0.122479   4.956823   -6.505617 H        1 UNL1     0.0429
     89 H         0.226933   3.421872   -7.371209 H        1 UNL1     0.0429
     90 H         -1.678619   4.015799   -5.024421 H        1 UNL1     0.0308
     91 H         -3.264005   3.588341   -7.296185 H        1 UNL1     0.0233
     92 H         -2.878371   5.180731   -6.595418 H        1 UNL1     0.0233
     93 H         -1.954855   4.565769   -7.949502 H        1 UNL1     0.0233
     94 H         -1.69676   1.799125   -4.864606 H        1 UNL1     0.0233
     95 H         -2.722291   1.866553   -6.306156 H        1 UNL1     0.0233
     96 H         -0.980947   1.542283   -6.46913 H        1 UNL1     0.0233
     97 H         10.551743   3.001885   0.487824 H        1 UNL1     0.0280
     98 H         10.696947   4.570664   -0.257182 H        1 UNL1     0.0280
     99 H         9.542434   4.330798   1.087918 H        1 UNL1     0.0280
     100 H         10.607025   4.339007   -2.542226 H        1 UNL1     0.2922
     101 H         4.502083   -3.160582   -1.552113 H        1 UNL1     0.0236
     102 H         3.548462   -3.484589   -3.052676 H        1 UNL1     0.0236
     103 H         2.816885   -3.571386   -1.480175 H        1 UNL1     0.0236
     104 H         1.268766   -3.067541   -1.84427 H        1 UNL1     0.2098
     105 H         -1.047351   -0.892398   1.057105 H        1 UNL1     0.0234
     106 H         0.260097   0.163989   1.661854 H        1 UNL1     0.0234
     107 H         0.0   0.0   0.0 H        1 UNL1     0.0234
     108 H         3.384872   -2.670662   2.786755 H        1 UNL1     0.2098
     109 H         2.541648   1.631013   1.599382 H        1 UNL1     0.0234
     110 H         0.782945   1.29041   1.538088 H        1 UNL1     0.0234
     111 H         1.366525   2.748854   2.260043 H        1 UNL1     0.0234
     112 H         -0.986906   1.963561   5.765007 H        1 UNL1     0.0342
     113 H         -2.641957   2.073064   5.067117 H        1 UNL1     0.0342
     114 H         -2.36966   1.22412   6.591295 H        1 UNL1     0.0342
     115 H         2.035468   -1.526531   5.685924 H        1 UNL1     0.0234
     116 H         1.082622   -3.006626   5.536965 H        1 UNL1     0.0234
     117 H         2.671897   -2.81033   4.769294 H        1 UNL1     0.0234
     118 H         4.88282   3.568514   1.180891 H        1 UNL1     0.0309
     119 H         5.38838   3.042025   2.816519 H        1 UNL1     0.0309
     120 H         6.414014   4.046751   1.816142 H        1 UNL1     0.0309
     121 H         2.396963   -1.678373   5.826869 H        1 UNL1     0.0524
     122 H         1.397541   -0.788374   4.671051 H        1 UNL1     0.0524
     123 H         2.348875   -2.189304   4.117786 H        1 UNL1     0.0524
@<TRIPOS>BOND
     1     1     2    1
     2     1    42    1
     3     2     3    2
     4     3     4    1
     5     4     5    2
     6     5     7    1
     7     6    75    1
     8     6    76    1
     9     6    77    1
    10     7     9   am
    11     9    10    1
    12    10    11    2
    13    10    43    1
    14    11    14    1
    15    11    15    1
    16    12    13   ar
    17    12    27   ar
    18    12    43    1
    19    13    14    1
    20    13    30   ar
    21    14    17    2
    22    15    16    1
    23    16    17    1
    24    16    18    1
    25    16    22    1
    26    18    19    1
    27    19    20    1
    28    20    21    1
    29    21    22    1
    30    23    24    1
    31    23    88    1
    32    23    89    1
    33    24    25    1
    34    24    26    1
    35    24    90    1
    36    25    91    1
    37    25    92    1
    38    25    93    1
    39    26    94    1
    40    26    95    1
    41    26    96    1
    42    27    28   ar
    43    28    29   ar
    44    29    30   ar
    45    29    31    1
    46    30    33    1
    47    31    32    1
    48    32    33    1
    49    32    35    1
    50    34    97    1
    51    34    98    1
    52    34    99    1
    53    35    61    1
    54    36    37    1
    55    36    60    1
    56    37    38    1
    57    38    39    1
    58    39    40    1
    59    40    41    1
    60    41    42    1
    61    45   100    1
    62    47   101    1
    63    47   102    1
    64    47   103    1
    65    48   104    1
    66    49   105    1
    67    49   106    1
    68    49   107    1
    69    50   108    1
    70    51    59    1
    71    52   109    1
    72    52   110    1
    73    52   111    1
    74    53    54    1
    75    54    55    2
    76    54    56    1
    77    56   112    1
    78    56   113    1
    79    56   114    1
    80    57   115    1
    81    57   116    1
    82    57   117    1
    83    58   118    1
    84    58   119    1
    85    58   120    1
    86    59   121    1
    87    59   122    1
    88    59   123    1
    89    60    61    2
    90     1    47    1
    91     1    62    1
    92     2    63    1
    93     3    64    1
    94     4    65    1
    95     5     6    1
    96     7     8    2
    97     9    78    1
    98    15    79    1
    99    18    80    1
   100    18    81    1
   101    19    82    1
   102    19    83    1
   103    20    23    1
   104    21    84    1
   105    21    85    1
   106    22    86    1
   107    22    87    1
   108    27    45    1
   109    28    34    1
   110    32    58    1
   111    33    46    2
   112    36    51    1
   113    36    66    1
   114    37    52    1
   115    37    67    1
   116    38    53    1
   117    38    68    1
   118    42    48    1
   119    42    72    1
   120    43    44    2
   121    60    73    1
   122    61    74    1
   123    39    69    1
   124    39    57    1
   125    40    70    1
   126    40    50    1
   127    41    71    1
   128    41    49    1
