@<TRIPOS>MOLECULE
*****
 123 128 0 0 0
SMALL
GASTEIGER

@<TRIPOS>ATOM
     1 C         3.30239   4.190904   -1.236857 C.3        1 UNL1     0.0009
     2 C         3.4695   5.80007   -2.142228 C.2        1 UNL1     -0.0787
     3 C         3.937421   6.5555   -3.285216 C.2        1 UNL1     -0.0649
     4 C         3.649827   8.184866   -3.644121 C.2        1 UNL1     -0.0542
     5 C         3.635953   9.163117   -4.668772 C.2        1 UNL1     0.0115
     6 C         4.033293   9.443106   -6.144255 C.3        1 UNL1     -0.0348
     7 C         2.834167   10.532289   -4.424855 C.2        1 UNL1     0.2441
     8 O         3.386944   11.584783   -4.136378 O.2        1 UNL1     -0.2702
     9 N         1.485145   10.503089   -4.819112 N.am        1 UNL1     -0.2772
     10 C         0.693851   10.046964   -3.789974 C.2        1 UNL1     0.1049
     11 C         0.614496   8.735696   -3.653962 C.2        1 UNL1     0.0801
     12 C         0.230303   10.366505   -1.35269 C.ar        1 UNL1     0.0753
     13 C         0.36199   8.94731   -1.22172 C.ar        1 UNL1     0.0305
     14 C         0.427973   8.073829   -2.391219 C.2        1 UNL1     0.0924
     15 N         1.012117   7.755586   -4.483305 N.pl3        1 UNL1     -0.3170
     16 C         0.540466   6.506968   -3.945948 C.3        1 UNL1     0.1275
     17 N         0.450476   6.74571   -2.458458 N.2        1 UNL1     -0.2557
     18 C         -0.893337   6.318313   -4.432074 C.3        1 UNL1     0.0016
     19 C         -0.905806   6.392946   -5.950581 C.3        1 UNL1     0.0026
     20 N         -0.032876   5.352908   -6.477213 N.3        1 UNL1     -0.3018
     21 C         1.355679   5.414329   -6.016222 C.3        1 UNL1     0.0026
     22 C         1.344804   5.333103   -4.488747 C.3        1 UNL1     0.0016
     23 C         -0.20222   5.142099   -7.901125 C.3        1 UNL1     0.0012
     24 C         -1.559975   4.482822   -8.190285 C.3        1 UNL1     -0.0339
     25 C         -2.621736   5.526734   -8.573652 C.3        1 UNL1     -0.0615
     26 C         -1.405174   3.42188   -9.266025 C.3        1 UNL1     -0.0615
     27 C         0.046675   11.180302   -0.237283 C.ar        1 UNL1     0.1347
     28 C         -0.060824   10.687799   1.051102 C.ar        1 UNL1     0.0342
     29 C         0.120727   9.292759   1.160946 C.ar        1 UNL1     0.1435
     30 C         0.341486   8.469144   0.056345 C.ar        1 UNL1     0.0774
     31 O         -0.063776   8.648244   2.333791 O.3        1 UNL1     -0.4436
     32 C         -0.262019   7.274914   1.965639 C.3        1 UNL1     0.3143
     33 C         0.392389   7.130687   0.606535 C.2        1 UNL1     0.2504
     34 C         -0.506076   11.465653   2.25808 C.3        1 UNL1     -0.0327
     35 O         0.496481   6.474784   2.88091 O.2        1 UNL1     -0.4528
     36 C         -1.371467   3.184106   3.181397 C.3        1 UNL1     0.0854
     37 C         -1.774136   2.160236   2.051321 C.3        1 UNL1     0.0236
     38 C         -1.267908   0.657303   2.289374 C.3        1 UNL1     0.1131
     39 C         0.252605   0.385774   2.630817 C.3        1 UNL1     0.0200
     40 C         1.460313   1.180931   1.799189 C.3        1 UNL1     0.0661
     41 C         1.58773   1.307701   0.112386 C.3        1 UNL1     0.0091
     42 C         2.268307   2.653775   -0.931789 C.3        1 UNL1     0.0661
     43 C         0.206101   10.934243   -2.723583 C.2        1 UNL1     0.2131
     44 O         -0.277123   12.018585   -2.994572 O.2        1 UNL1     -0.2851
     45 O         -0.026688   12.555778   -0.447333 O.3        1 UNL1     -0.5056
     46 O         0.868651   6.139017   0.100949 O.2        1 UNL1     -0.2836
     47 C         4.656071   3.793492   -0.589098 C.3        1 UNL1     -0.0566
     48 O         3.073167   1.742718   -1.781077 O.3        1 UNL1     -0.3909
     49 C         0.274177   0.888399   -0.509111 C.3        1 UNL1     -0.0577
     50 O         1.745428   2.427943   2.400348 O.3        1 UNL1     -0.3910
     51 O         -0.479668   2.701411   4.160749 O.3        1 UNL1     -0.3753
     52 C         -1.769529   2.824513   0.635813 C.3        1 UNL1     -0.0564
     53 O         -1.945103   -0.351198   1.408092 O.3        1 UNL1     -0.4608
     54 C         -1.469718   -1.604437   1.122907 C.2        1 UNL1     0.3042
     55 O         -1.054696   -2.017432   0.040765 O.2        1 UNL1     -0.2512
     56 C         -1.422084   -2.515552   2.316353 C.3        1 UNL1     0.0332
     57 C         0.380351   0.292895   4.222429 C.3        1 UNL1     -0.0567
     58 C         -1.788033   7.080291   1.807734 C.3        1 UNL1     0.0210
     59 C         -0.59892   3.32403   5.439025 C.3        1 UNL1     0.0372
     60 C         -0.813804   4.474146   2.691531 C.2        1 UNL1     -0.0208
     61 C         0.245531   5.170719   3.105462 C.2        1 UNL1     0.0882
     62 H         2.724735   4.70895   -0.461837 H        1 UNL1     0.0365
     63 H         3.025016   6.487446   -1.419443 H        1 UNL1     0.0576
     64 H         4.408995   6.066382   -4.140488 H        1 UNL1     0.0615
     65 H         3.257232   8.592433   -2.708577 H        1 UNL1     0.0622
     66 H         -2.319722   3.434739   3.677425 H        1 UNL1     0.0645
     67 H         -2.865619   2.045573   2.16997 H        1 UNL1     0.0362
     68 H         -1.820709   0.420865   3.211345 H        1 UNL1     0.0741
     69 H         0.473448   -0.654552   2.432428 H        1 UNL1     0.0359
     70 H         2.325331   0.542648   2.062626 H        1 UNL1     0.0600
     71 H         2.220533   0.423875   -0.100617 H        1 UNL1     0.0348
     72 H         2.687677   2.807919   0.073041 H        1 UNL1     0.0602
     73 H         -1.478401   4.893212   1.977427 H        1 UNL1     0.0628
     74 H         1.004831   4.790182   3.789489 H        1 UNL1     0.1022
     75 H         4.512721   8.542758   -6.59874 H        1 UNL1     0.0279
     76 H         3.218924   9.648845   -6.835301 H        1 UNL1     0.0279
     77 H         4.839047   10.186349   -6.233979 H        1 UNL1     0.0279
     78 H         1.371079   9.861258   -5.600853 H        1 UNL1     0.1553
     79 H         1.194588   7.892663   -5.460468 H        1 UNL1     0.1484
     80 H         -1.267379   5.35098   -4.075527 H        1 UNL1     0.0317
     81 H         -1.553325   7.084174   -4.010737 H        1 UNL1     0.0317
     82 H         -0.60088   7.38611   -6.311908 H        1 UNL1     0.0428
     83 H         -1.937771   6.25778   -6.275896 H        1 UNL1     0.0428
     84 H         1.970164   4.577386   -6.362264 H        1 UNL1     0.0428
     85 H         1.874953   6.303252   -6.400262 H        1 UNL1     0.0428
     86 H         2.374773   5.246613   -4.196051 H        1 UNL1     0.0317
     87 H         0.908673   4.37939   -4.167318 H        1 UNL1     0.0317
     88 H         -0.176576   6.12136   -8.39679 H        1 UNL1     0.0429
     89 H         0.62247   4.549277   -8.317324 H        1 UNL1     0.0429
     90 H         -1.899974   3.952221   -7.293024 H        1 UNL1     0.0308
     91 H         -2.309747   6.109731   -9.445363 H        1 UNL1     0.0233
     92 H         -3.578039   5.044122   -8.788545 H        1 UNL1     0.0233
     93 H         -2.815094   6.242098   -7.765134 H        1 UNL1     0.0233
     94 H         -2.389514   3.085539   -9.609223 H        1 UNL1     0.0233
     95 H         -0.871961   3.83675   -10.125984 H        1 UNL1     0.0233
     96 H         -0.853744   2.553849   -8.893984 H        1 UNL1     0.0233
     97 H         -0.544821   10.847215   3.149855 H        1 UNL1     0.0280
     98 H         0.178367   12.290913   2.494171 H        1 UNL1     0.0280
     99 H         -1.512377   11.878938   2.080177 H        1 UNL1     0.0280
     100 H         -0.795086   12.965836   -0.090908 H        1 UNL1     0.2922
     101 H         4.536164   2.869086   -0.024517 H        1 UNL1     0.0236
     102 H         5.091736   4.588333   0.015392 H        1 UNL1     0.0236
     103 H         5.424809   3.561945   -1.345154 H        1 UNL1     0.0236
     104 H         3.975015   1.709846   -1.406163 H        1 UNL1     0.2098
     105 H         -0.532021   1.606641   -0.382684 H        1 UNL1     0.0234
     106 H         0.34245   0.576694   -1.551275 H        1 UNL1     0.0234
     107 H         0.0   -0.0   0.0 H        1 UNL1     0.0234
     108 H         0.945656   2.981608   2.31323 H        1 UNL1     0.2098
     109 H         -0.78323   3.229549   0.369596 H        1 UNL1     0.0234
     110 H         -2.115391   2.15184   -0.156421 H        1 UNL1     0.0234
     111 H         -2.463318   3.674246   0.585246 H        1 UNL1     0.0234
     112 H         -1.02716   -3.492924   2.022882 H        1 UNL1     0.0342
     113 H         -0.842617   -2.089495   3.133994 H        1 UNL1     0.0342
     114 H         -2.449388   -2.662021   2.677405 H        1 UNL1     0.0342
     115 H         -0.246951   -0.508538   4.636418 H        1 UNL1     0.0234
     116 H         1.399747   0.128374   4.577132 H        1 UNL1     0.0234
     117 H         -0.025209   1.174217   4.748485 H        1 UNL1     0.0234
     118 H         -2.28527   6.898609   2.776626 H        1 UNL1     0.0309
     119 H         -2.278535   7.920069   1.305357 H        1 UNL1     0.0309
     120 H         -2.03982   6.188461   1.223483 H        1 UNL1     0.0309
     121 H         -0.366795   4.381278   5.313727 H        1 UNL1     0.0524
     122 H         -1.622096   3.254571   5.844394 H        1 UNL1     0.0524
     123 H         0.091307   2.869739   6.144221 H        1 UNL1     0.0524
@<TRIPOS>BOND
     1     1     2    1
     2     1    42    1
     3     2     3    2
     4     3     4    1
     5     4     5    2
     6     5     7    1
     7     6    75    1
     8     6    76    1
     9     6    77    1
    10     7     9   am
    11     9    10    1
    12    10    11    2
    13    10    43    1
    14    11    14    1
    15    11    15    1
    16    12    13   ar
    17    12    27   ar
    18    12    43    1
    19    13    14    1
    20    13    30   ar
    21    14    17    2
    22    15    16    1
    23    16    17    1
    24    16    18    1
    25    16    22    1
    26    18    19    1
    27    19    20    1
    28    20    21    1
    29    21    22    1
    30    23    24    1
    31    23    88    1
    32    23    89    1
    33    24    25    1
    34    24    26    1
    35    24    90    1
    36    25    91    1
    37    25    92    1
    38    25    93    1
    39    26    94    1
    40    26    95    1
    41    26    96    1
    42    27    28   ar
    43    28    29   ar
    44    29    30   ar
    45    29    31    1
    46    30    33    1
    47    31    32    1
    48    32    33    1
    49    32    35    1
    50    34    97    1
    51    34    98    1
    52    34    99    1
    53    35    61    1
    54    36    37    1
    55    36    60    1
    56    37    38    1
    57    38    39    1
    58    39    40    1
    59    40    41    1
    60    41    42    1
    61    45   100    1
    62    47   101    1
    63    47   102    1
    64    47   103    1
    65    48   104    1
    66    49   105    1
    67    49   106    1
    68    49   107    1
    69    50   108    1
    70    51    59    1
    71    52   109    1
    72    52   110    1
    73    52   111    1
    74    53    54    1
    75    54    55    2
    76    54    56    1
    77    56   112    1
    78    56   113    1
    79    56   114    1
    80    57   115    1
    81    57   116    1
    82    57   117    1
    83    58   118    1
    84    58   119    1
    85    58   120    1
    86    59   121    1
    87    59   122    1
    88    59   123    1
    89    60    61    2
    90     1    47    1
    91     1    62    1
    92     2    63    1
    93     3    64    1
    94     4    65    1
    95     5     6    1
    96     7     8    2
    97     9    78    1
    98    15    79    1
    99    18    80    1
   100    18    81    1
   101    19    82    1
   102    19    83    1
   103    20    23    1
   104    21    84    1
   105    21    85    1
   106    22    86    1
   107    22    87    1
   108    27    45    1
   109    28    34    1
   110    32    58    1
   111    33    46    2
   112    36    51    1
   113    36    66    1
   114    37    52    1
   115    37    67    1
   116    38    53    1
   117    38    68    1
   118    42    48    1
   119    42    72    1
   120    43    44    2
   121    60    73    1
   122    61    74    1
   123    39    69    1
   124    39    57    1
   125    40    70    1
   126    40    50    1
   127    41    71    1
   128    41    49    1
