@<TRIPOS>MOLECULE
*****
 123 128 0 0 0
SMALL
GASTEIGER

@<TRIPOS>ATOM
     1 C         0.869071   2.813103   4.61984 C.3        1 UNL1     0.0009
     2 C         2.054267   3.877954   5.5677 C.2        1 UNL1     -0.0787
     3 C         3.037051   4.034997   6.619137 C.2        1 UNL1     -0.0649
     4 C         3.975043   5.399714   6.97138 C.2        1 UNL1     -0.0542
     5 C         5.144505   5.869198   7.618698 C.2        1 UNL1     0.0115
     6 C         6.289053   5.470314   8.590411 C.3        1 UNL1     -0.0348
     7 C         5.727316   7.310944   7.22034 C.2        1 UNL1     0.2441
     8 O         5.566027   8.307827   7.9108 O.2        1 UNL1     -0.2702
     9 N         6.653842   7.300099   6.163182 N.am        1 UNL1     -0.2772
     10 C         6.004919   7.409537   4.954776 C.2        1 UNL1     0.1049
     11 C         5.517522   6.289616   4.452338 C.2        1 UNL1     0.0801
     12 C         4.271757   8.750384   3.748288 C.ar        1 UNL1     0.0753
     13 C         3.660184   7.503306   3.402769 C.ar        1 UNL1     0.0305
     14 C         4.337347   6.229186   3.633245 C.2        1 UNL1     0.0924
     15 N         5.727726   5.014209   4.820681 N.pl3        1 UNL1     -0.3170
     16 C         5.099878   4.165362   3.843173 C.3        1 UNL1     0.1275
     17 N         3.969172   4.998064   3.290151 N.2        1 UNL1     -0.2557
     18 C         6.091635   3.98403   2.698079 C.3        1 UNL1     0.0016
     19 C         7.392076   3.435415   3.26329 C.3        1 UNL1     0.0026
     20 N         7.116762   2.166974   3.923811 N.3        1 UNL1     -0.3018
     21 C         6.126665   2.228943   5.000953 C.3        1 UNL1     0.0026
     22 C         4.827135   2.778289   4.409908 C.3        1 UNL1     0.0016
     23 C         8.319345   1.419214   4.232506 C.3        1 UNL1     0.0012
     24 C         8.969671   0.889508   2.944778 C.3        1 UNL1     -0.0339
     25 C         10.398794   1.430035   2.773031 C.3        1 UNL1     -0.0615
     26 C         8.941244   -0.628993   2.933547 C.3        1 UNL1     -0.0615
     27 C         3.674071   9.963879   3.416144 C.ar        1 UNL1     0.1347
     28 C         2.489797   10.056706   2.706969 C.ar        1 UNL1     0.0342
     29 C         1.881071   8.81637   2.420293 C.ar        1 UNL1     0.1435
     30 C         2.449978   7.593551   2.778453 C.ar        1 UNL1     0.0774
     31 O         0.780681   8.734795   1.640874 O.3        1 UNL1     -0.4436
     32 C         0.749457   7.369174   1.199311 C.3        1 UNL1     0.3143
     33 C         1.548812   6.600545   2.232005 C.2        1 UNL1     0.2504
     34 C         1.921646   11.309073   2.099614 C.3        1 UNL1     -0.0327
     35 O         -0.607057   6.919132   1.302189 O.2        1 UNL1     -0.4528
     36 C         -1.046974   4.309679   -1.419082 C.3        1 UNL1     0.0854
     37 C         -0.239395   2.976742   -1.661192 C.3        1 UNL1     0.0236
     38 C         -1.134872   1.648664   -1.739135 C.3        1 UNL1     0.1131
     39 C         -2.187972   1.343751   -0.598838 C.3        1 UNL1     0.0200
     40 C         -1.785564   1.566891   1.004507 C.3        1 UNL1     0.0661
     41 C         -0.390715   0.978711   1.770047 C.3        1 UNL1     0.0091
     42 C         0.598162   1.682254   3.145747 C.3        1 UNL1     0.0661
     43 C         5.607708   8.709195   4.393113 C.2        1 UNL1     0.2131
     44 O         6.389836   9.642401   4.381276 O.2        1 UNL1     -0.2851
     45 O         4.312044   11.131653   3.829342 O.3        1 UNL1     -0.5056
     46 O         1.449006   5.436131   2.548282 O.2        1 UNL1     -0.2836
     47 C         -0.404926   2.540737   5.464073 C.3        1 UNL1     -0.0566
     48 O         0.663827   0.408055   3.90154 O.3        1 UNL1     -0.3909
     49 C         0.588462   0.518084   0.713387 C.3        1 UNL1     -0.0577
     50 O         -2.027856   2.901756   1.400931 O.3        1 UNL1     -0.3910
     51 O         -2.417937   4.155332   -1.129134 O.3        1 UNL1     -0.3753
     52 C         1.151105   3.000932   -0.946439 C.3        1 UNL1     -0.0564
     53 O         -0.407613   0.466634   -2.310297 O.3        1 UNL1     -0.4608
     54 C         -0.994588   -0.600482   -2.938512 C.2        1 UNL1     0.3042
     55 O         -0.772616   -1.795214   -2.745684 O.2        1 UNL1     -0.2512
     56 C         -2.05933   -0.207684   -3.922761 C.3        1 UNL1     0.0332
     57 C         -3.607064   1.890573   -1.094156 C.3        1 UNL1     -0.0567
     58 C         1.505895   7.32799   -0.148886 C.3        1 UNL1     0.0210
     59 C         -3.1843   5.356872   -1.198811 C.3        1 UNL1     0.0372
     60 C         -0.484575   5.204079   -0.37079 C.2        1 UNL1     -0.0208
     61 C         -1.08933   5.864121   0.617826 C.2        1 UNL1     0.0882
     62 H         0.640997   3.672111   3.977346 H        1 UNL1     0.0365
     63 H         1.862992   4.851448   5.111419 H        1 UNL1     0.0576
     64 H         3.388967   3.183332   7.205593 H        1 UNL1     0.0615
     65 H         3.495017   6.199998   6.401639 H        1 UNL1     0.0622
     66 H         -0.958522   4.861745   -2.365362 H        1 UNL1     0.0645
     67 H         0.115377   3.063684   -2.702892 H        1 UNL1     0.0362
     68 H         -1.732557   1.882035   -2.633468 H        1 UNL1     0.0741
     69 H         -2.445555   0.293622   -0.634727 H        1 UNL1     0.0359
     70 H         -2.593561   0.98413   1.486783 H        1 UNL1     0.0600
     71 H         -0.772136   0.010411   2.14935 H        1 UNL1     0.0348
     72 H         -0.383394   2.175691   3.194572 H        1 UNL1     0.0602
     73 H         0.542444   5.379165   -0.575298 H        1 UNL1     0.0628
     74 H         -2.121649   5.699286   0.928282 H        1 UNL1     0.1022
     75 H         7.242928   5.97312   8.299994 H        1 UNL1     0.0279
     76 H         6.171498   5.772695   9.62859 H        1 UNL1     0.0279
     77 H         6.568474   4.4099   8.505871 H        1 UNL1     0.0279
     78 H         7.159395   6.416648   6.160498 H        1 UNL1     0.1553
     79 H         6.506846   4.716845   5.378785 H        1 UNL1     0.1484
     80 H         5.659144   3.303228   1.95496 H        1 UNL1     0.0317
     81 H         6.273999   4.933965   2.184252 H        1 UNL1     0.0317
     82 H         7.867651   4.146642   3.954591 H        1 UNL1     0.0428
     83 H         8.085501   3.315455   2.43033 H        1 UNL1     0.0428
     84 H         5.879496   1.251302   5.42632 H        1 UNL1     0.0428
     85 H         6.492527   2.808724   5.859624 H        1 UNL1     0.0428
     86 H         4.092762   2.684827   5.188335 H        1 UNL1     0.0317
     87 H         4.456168   2.103614   3.628695 H        1 UNL1     0.0317
     88 H         9.026133   2.098165   4.727249 H        1 UNL1     0.0429
     89 H         8.111646   0.602721   4.936051 H        1 UNL1     0.0429
     90 H         8.370476   1.20668   2.083047 H        1 UNL1     0.0308
     91 H         10.571194   2.306378   3.405015 H        1 UNL1     0.0233
     92 H         11.134813   0.660737   3.018112 H        1 UNL1     0.0233
     93 H         10.608351   1.735974   1.740887 H        1 UNL1     0.0233
     94 H         9.730322   -1.026331   3.581091 H        1 UNL1     0.0233
     95 H         7.980633   -0.987534   3.31386 H        1 UNL1     0.0233
     96 H         9.090884   -1.023458   1.9246 H        1 UNL1     0.0233
     97 H         1.558456   11.999685   2.854849 H        1 UNL1     0.0280
     98 H         2.670466   11.864373   1.519816 H        1 UNL1     0.0280
     99 H         1.080609   11.048834   1.436268 H        1 UNL1     0.0280
     100 H         4.563092   11.140754   4.736268 H        1 UNL1     0.2922
     101 H         -1.286878   2.871395   4.91591 H        1 UNL1     0.0236
     102 H         -0.35799   2.973615   6.462771 H        1 UNL1     0.0236
     103 H         -0.567701   1.463052   5.632278 H        1 UNL1     0.0236
     104 H         0.432841   -0.313343   3.284124 H        1 UNL1     0.2098
     105 H         1.104152   1.323921   0.19715 H        1 UNL1     0.0234
     106 H         1.302977   -0.232551   1.05094 H        1 UNL1     0.0234
     107 H         0.0   -0.0   0.0 H        1 UNL1     0.0234
     108 H         -1.572442   3.038242   2.254007 H        1 UNL1     0.2098
     109 H         1.98599   2.942421   -1.658657 H        1 UNL1     0.0234
     110 H         1.285254   3.871446   -0.295321 H        1 UNL1     0.0234
     111 H         1.274693   2.142803   -0.272432 H        1 UNL1     0.0234
     112 H         -3.010527   -0.673388   -3.647644 H        1 UNL1     0.0342
     113 H         -2.16276   0.873268   -4.004554 H        1 UNL1     0.0342
     114 H         -1.770588   -0.590202   -4.911433 H        1 UNL1     0.0342
     115 H         -4.434153   1.260691   -0.738682 H        1 UNL1     0.0234
     116 H         -3.819661   2.916265   -0.786247 H        1 UNL1     0.0234
     117 H         -3.745691   1.827451   -2.187197 H        1 UNL1     0.0234
     118 H         2.100616   6.40474   -0.262566 H        1 UNL1     0.0309
     119 H         0.846005   7.437895   -1.015297 H        1 UNL1     0.0309
     120 H         2.25466   8.122975   -0.235225 H        1 UNL1     0.0309
     121 H         -3.133229   5.837588   -0.222256 H        1 UNL1     0.0524
     122 H         -2.781929   6.067344   -1.940003 H        1 UNL1     0.0524
     123 H         -4.216234   5.130351   -1.451583 H        1 UNL1     0.0524
@<TRIPOS>BOND
     1     1     2    1
     2     1    42    1
     3     2     3    2
     4     3     4    1
     5     4     5    2
     6     5     7    1
     7     6    75    1
     8     6    76    1
     9     6    77    1
    10     7     9   am
    11     9    10    1
    12    10    11    2
    13    10    43    1
    14    11    14    1
    15    11    15    1
    16    12    13   ar
    17    12    27   ar
    18    12    43    1
    19    13    14    1
    20    13    30   ar
    21    14    17    2
    22    15    16    1
    23    16    17    1
    24    16    18    1
    25    16    22    1
    26    18    19    1
    27    19    20    1
    28    20    21    1
    29    21    22    1
    30    23    24    1
    31    23    88    1
    32    23    89    1
    33    24    25    1
    34    24    26    1
    35    24    90    1
    36    25    91    1
    37    25    92    1
    38    25    93    1
    39    26    94    1
    40    26    95    1
    41    26    96    1
    42    27    28   ar
    43    28    29   ar
    44    29    30   ar
    45    29    31    1
    46    30    33    1
    47    31    32    1
    48    32    33    1
    49    32    35    1
    50    34    97    1
    51    34    98    1
    52    34    99    1
    53    35    61    1
    54    36    37    1
    55    36    60    1
    56    37    38    1
    57    38    39    1
    58    39    40    1
    59    40    41    1
    60    41    42    1
    61    45   100    1
    62    47   101    1
    63    47   102    1
    64    47   103    1
    65    48   104    1
    66    49   105    1
    67    49   106    1
    68    49   107    1
    69    50   108    1
    70    51    59    1
    71    52   109    1
    72    52   110    1
    73    52   111    1
    74    53    54    1
    75    54    55    2
    76    54    56    1
    77    56   112    1
    78    56   113    1
    79    56   114    1
    80    57   115    1
    81    57   116    1
    82    57   117    1
    83    58   118    1
    84    58   119    1
    85    58   120    1
    86    59   121    1
    87    59   122    1
    88    59   123    1
    89    60    61    2
    90     1    47    1
    91     1    62    1
    92     2    63    1
    93     3    64    1
    94     4    65    1
    95     5     6    1
    96     7     8    2
    97     9    78    1
    98    15    79    1
    99    18    80    1
   100    18    81    1
   101    19    82    1
   102    19    83    1
   103    20    23    1
   104    21    84    1
   105    21    85    1
   106    22    86    1
   107    22    87    1
   108    27    45    1
   109    28    34    1
   110    32    58    1
   111    33    46    2
   112    36    51    1
   113    36    66    1
   114    37    52    1
   115    37    67    1
   116    38    53    1
   117    38    68    1
   118    42    48    1
   119    42    72    1
   120    43    44    2
   121    60    73    1
   122    61    74    1
   123    39    69    1
   124    39    57    1
   125    40    70    1
   126    40    50    1
   127    41    71    1
   128    41    49    1
