@<TRIPOS>MOLECULE
*****
 123 128 0 0 0
SMALL
GASTEIGER

@<TRIPOS>ATOM
     1 C         0.811829   -2.756304   -4.295698 C.3        1 UNL1     0.0009
     2 C         -0.178439   -3.588331   -5.623906 C.2        1 UNL1     -0.0787
     3 C         -0.599657   -4.792234   -6.308916 C.2        1 UNL1     -0.0649
     4 C         -1.758104   -4.940893   -7.534582 C.2        1 UNL1     -0.0542
     5 C         -2.625737   -5.834312   -8.20993 C.2        1 UNL1     0.0115
     6 C         -2.991772   -7.332891   -8.393243 C.3        1 UNL1     -0.0348
     7 C         -3.841091   -5.235221   -9.070739 C.2        1 UNL1     0.2441
     8 O         -3.814576   -5.151619   -10.290917 O.2        1 UNL1     -0.2702
     9 N         -5.037519   -5.055595   -8.354885 N.am        1 UNL1     -0.2772
     10 C         -5.060459   -3.814244   -7.76172 C.2        1 UNL1     0.1049
     11 C         -4.429917   -3.709682   -6.605993 C.2        1 UNL1     0.0801
     12 C         -4.68712   -1.385343   -8.229042 C.ar        1 UNL1     0.0753
     13 C         -3.838762   -1.374372   -7.076316 C.ar        1 UNL1     0.0305
     14 C         -3.788242   -2.505468   -6.152671 C.2        1 UNL1     0.0924
     15 N         -3.939999   -4.66686   -5.799571 N.pl3        1 UNL1     -0.3170
     16 C         -3.50252   -4.0351   -4.583123 C.3        1 UNL1     0.1275
     17 N         -3.143708   -2.628442   -4.995787 N.2        1 UNL1     -0.2557
     18 C         -4.721494   -3.911795   -3.673948 C.3        1 UNL1     0.0016
     19 C         -5.326379   -5.293336   -3.481469 C.3        1 UNL1     0.0026
     20 N         -4.320236   -6.166692   -2.893291 N.3        1 UNL1     -0.3018
     21 C         -3.083841   -6.299853   -3.666572 C.3        1 UNL1     0.0026
     22 C         -2.490867   -4.900995   -3.843981 C.3        1 UNL1     0.0016
     23 C         -4.874251   -7.409965   -2.395313 C.3        1 UNL1     0.0012
     24 C         -6.246634   -7.681147   -3.031538 C.3        1 UNL1     -0.0339
     25 C         -6.147726   -8.720496   -4.160266 C.3        1 UNL1     -0.0615
     26 C         -7.240161   -8.107297   -1.964729 C.3        1 UNL1     -0.0615
     27 C         -4.821198   -0.258872   -9.037252 C.ar        1 UNL1     0.1347
     28 C         -4.190741   0.943767   -8.772234 C.ar        1 UNL1     0.0342
     29 C         -3.322606   0.916343   -7.660139 C.ar        1 UNL1     0.1435
     30 C         -3.150404   -0.215533   -6.862378 C.ar        1 UNL1     0.0774
     31 O         -2.720907   2.038171   -7.20796 O.3        1 UNL1     -0.4436
     32 C         -2.339251   1.726679   -5.859559 C.3        1 UNL1     0.3143
     33 C         -2.251306   0.214655   -5.811984 C.2        1 UNL1     0.2504
     34 C         -4.480203   2.257634   -9.443103 C.3        1 UNL1     -0.0327
     35 O         -1.01094   2.228124   -5.666179 O.2        1 UNL1     -0.4528
     36 C         -0.761991   3.123068   -1.985801 C.3        1 UNL1     0.0854
     37 C         -0.993451   2.210242   -0.720614 C.3        1 UNL1     0.0236
     38 C         0.23126   2.16554   0.313711 C.3        1 UNL1     0.1131
     39 C         1.691264   1.856876   -0.21106 C.3        1 UNL1     0.0200
     40 C         1.949512   0.642473   -1.325049 C.3        1 UNL1     0.0661
     41 C         1.367677   -0.947163   -1.214883 C.3        1 UNL1     0.0091
     42 C         0.861071   -2.122705   -2.528981 C.3        1 UNL1     0.0661
     43 C         -5.488873   -2.607641   -8.484855 C.2        1 UNL1     0.2131
     44 O         -6.50219   -2.618832   -9.159985 O.2        1 UNL1     -0.2851
     45 O         -5.631114   -0.367342   -10.165839 O.3        1 UNL1     -0.5056
     46 O         -1.574528   -0.478299   -5.085596 O.2        1 UNL1     -0.2836
     47 C         2.314428   -2.722674   -4.684347 C.3        1 UNL1     -0.0566
     48 O         1.631512   -3.258888   -1.968067 O.3        1 UNL1     -0.3909
     49 C         0.307062   -1.005103   -0.138207 C.3        1 UNL1     -0.0577
     50 O         1.784136   1.127316   -2.642357 O.3        1 UNL1     -0.3910
     51 O         0.539484   3.642167   -2.141144 O.3        1 UNL1     -0.3753
     52 C         -1.836205   0.939364   -1.066421 C.3        1 UNL1     -0.0564
     53 O         -0.13313   1.59118   1.651492 O.3        1 UNL1     -0.4608
     54 C         0.342247   0.414071   2.167594 C.2        1 UNL1     0.3042
     55 O         1.174435   0.273173   3.062831 O.2        1 UNL1     -0.2512
     56 C         -0.301362   -0.806432   1.573578 C.3        1 UNL1     0.0332
     57 C         2.423055   3.258315   -0.453186 C.3        1 UNL1     -0.0567
     58 C         -3.507444   2.187099   -4.956859 C.3        1 UNL1     0.0210
     59 C         1.479338   3.207336   -1.159583 C.3        1 UNL1     0.0372
     60 C         -1.134371   2.501869   -3.286034 C.2        1 UNL1     -0.0208
     61 C         -0.486936   2.482872   -4.451885 C.2        1 UNL1     0.0882
     62 H         0.386359   -1.794798   -4.607454 H        1 UNL1     0.0365
     63 H         -0.600972   -2.721398   -6.13612 H        1 UNL1     0.0576
     64 H         -0.301697   -5.783448   -5.959886 H        1 UNL1     0.0615
     65 H         -1.924147   -3.911151   -7.86252 H        1 UNL1     0.0622
     66 H         -1.45167   3.967503   -1.846804 H        1 UNL1     0.0645
     67 H         -1.755874   2.752441   -0.134703 H        1 UNL1     0.0362
     68 H         0.249562   3.22176   0.622884 H        1 UNL1     0.0741
     69 H         2.303091   1.545632   0.625124 H        1 UNL1     0.0359
     70 H         3.042874   0.511093   -1.213886 H        1 UNL1     0.0600
     71 H         2.222821   -1.430976   -0.703404 H        1 UNL1     0.0348
     72 H         1.486294   -1.365512   -3.024027 H        1 UNL1     0.0602
     73 H         -2.127593   2.131766   -3.224538 H        1 UNL1     0.0628
     74 H         0.551145   2.788958   -4.585819 H        1 UNL1     0.1022
     75 H         -3.707451   -7.460776   -9.240876 H        1 UNL1     0.0279
     76 H         -2.178931   -8.000462   -8.670205 H        1 UNL1     0.0279
     77 H         -3.577305   -7.733526   -7.5528 H        1 UNL1     0.0279
     78 H         -5.100278   -5.750458   -7.613735 H        1 UNL1     0.1553
     79 H         -4.222429   -5.628842   -5.8415 H        1 UNL1     0.1484
     80 H         -4.411373   -3.473565   -2.717629 H        1 UNL1     0.0317
     81 H         -5.463636   -3.231091   -4.104667 H        1 UNL1     0.0317
     82 H         -5.705532   -5.707176   -4.427457 H        1 UNL1     0.0428
     83 H         -6.194989   -5.182083   -2.831708 H        1 UNL1     0.0428
     84 H         -2.31509   -6.896198   -3.165369 H        1 UNL1     0.0428
     85 H         -3.250872   -6.824636   -4.617372 H        1 UNL1     0.0428
     86 H         -1.527099   -5.050042   -4.294452 H        1 UNL1     0.0317
     87 H         -2.249394   -4.469436   -2.864928 H        1 UNL1     0.0317
     88 H         -4.192502   -8.223847   -2.674794 H        1 UNL1     0.0429
     89 H         -4.939375   -7.406941   -1.299629 H        1 UNL1     0.0429
     90 H         -6.639232   -6.747019   -3.450445 H        1 UNL1     0.0308
     91 H         -5.23413   -8.584918   -4.746836 H        1 UNL1     0.0233
     92 H         -6.166062   -9.734614   -3.754266 H        1 UNL1     0.0233
     93 H         -6.98848   -8.65665   -4.861616 H        1 UNL1     0.0233
     94 H         -6.769688   -8.075292   -0.97606 H        1 UNL1     0.0233
     95 H         -8.093479   -7.423409   -1.954301 H        1 UNL1     0.0233
     96 H         -7.604186   -9.123277   -2.141475 H        1 UNL1     0.0233
     97 H         -4.037337   2.316028   -10.432896 H        1 UNL1     0.0280
     98 H         -5.556404   2.421469   -9.585249 H        1 UNL1     0.0280
     99 H         -4.073313   3.080888   -8.833358 H        1 UNL1     0.0280
     100 H         -5.796109   -1.25049   -10.445926 H        1 UNL1     0.2922
     101 H         2.418495   -2.411911   -5.723699 H        1 UNL1     0.0236
     102 H         2.829965   -3.66145   -4.484584 H        1 UNL1     0.0236
     103 H         2.874233   -1.966655   -4.108807 H        1 UNL1     0.0236
     104 H         1.058934   -3.711223   -1.318054 H        1 UNL1     0.2098
     105 H         -0.57136   -1.587802   -0.404005 H        1 UNL1     0.0234
     106 H         0.672385   -1.299753   0.845483 H        1 UNL1     0.0234
     107 H         0.0   0.0   0.0 H        1 UNL1     0.0234
     108 H         0.858917   1.428363   -2.726665 H        1 UNL1     0.2098
     109 H         -2.619438   0.744037   -0.320695 H        1 UNL1     0.0234
     110 H         -2.283141   0.978095   -2.065666 H        1 UNL1     0.0234
     111 H         -1.214053   0.034704   -1.08796 H        1 UNL1     0.0234
     112 H         0.073912   -1.705157   2.072385 H        1 UNL1     0.0342
     113 H         -1.388362   -0.759409   1.619006 H        1 UNL1     0.0342
     114 H         -0.014663   -0.864472   0.514522 H        1 UNL1     0.0342
     115 H         3.516451   3.161895   -0.404452 H        1 UNL1     0.0234
     116 H         2.177093   3.728559   -1.407346 H        1 UNL1     0.0234
     117 H         2.238225   3.995192   0.347309 H        1 UNL1     0.0234
     118 H         -4.387568   2.500308   -5.545322 H        1 UNL1     0.0309
     119 H         -3.814068   1.42786   -4.230402 H        1 UNL1     0.0309
     120 H         -3.261401   3.081911   -4.374724 H        1 UNL1     0.0309
     121 H         2.468558   3.527368   -1.485744 H        1 UNL1     0.0524
     122 H         1.292663   3.660713   -0.171838 H        1 UNL1     0.0524
     123 H         1.44831   2.125794   -1.062647 H        1 UNL1     0.0524
@<TRIPOS>BOND
     1     1     2    1
     2     1    42    1
     3     2     3    2
     4     3     4    1
     5     4     5    2
     6     5     7    1
     7     6    75    1
     8     6    76    1
     9     6    77    1
    10     7     9   am
    11     9    10    1
    12    10    11    2
    13    10    43    1
    14    11    14    1
    15    11    15    1
    16    12    13   ar
    17    12    27   ar
    18    12    43    1
    19    13    14    1
    20    13    30   ar
    21    14    17    2
    22    15    16    1
    23    16    17    1
    24    16    18    1
    25    16    22    1
    26    18    19    1
    27    19    20    1
    28    20    21    1
    29    21    22    1
    30    23    24    1
    31    23    88    1
    32    23    89    1
    33    24    25    1
    34    24    26    1
    35    24    90    1
    36    25    91    1
    37    25    92    1
    38    25    93    1
    39    26    94    1
    40    26    95    1
    41    26    96    1
    42    27    28   ar
    43    28    29   ar
    44    29    30   ar
    45    29    31    1
    46    30    33    1
    47    31    32    1
    48    32    33    1
    49    32    35    1
    50    34    97    1
    51    34    98    1
    52    34    99    1
    53    35    61    1
    54    36    37    1
    55    36    60    1
    56    37    38    1
    57    38    39    1
    58    39    40    1
    59    40    41    1
    60    41    42    1
    61    45   100    1
    62    47   101    1
    63    47   102    1
    64    47   103    1
    65    48   104    1
    66    49   105    1
    67    49   106    1
    68    49   107    1
    69    50   108    1
    70    51    59    1
    71    52   109    1
    72    52   110    1
    73    52   111    1
    74    53    54    1
    75    54    55    2
    76    54    56    1
    77    56   112    1
    78    56   113    1
    79    56   114    1
    80    57   115    1
    81    57   116    1
    82    57   117    1
    83    58   118    1
    84    58   119    1
    85    58   120    1
    86    59   121    1
    87    59   122    1
    88    59   123    1
    89    60    61    2
    90     1    47    1
    91     1    62    1
    92     2    63    1
    93     3    64    1
    94     4    65    1
    95     5     6    1
    96     7     8    2
    97     9    78    1
    98    15    79    1
    99    18    80    1
   100    18    81    1
   101    19    82    1
   102    19    83    1
   103    20    23    1
   104    21    84    1
   105    21    85    1
   106    22    86    1
   107    22    87    1
   108    27    45    1
   109    28    34    1
   110    32    58    1
   111    33    46    2
   112    36    51    1
   113    36    66    1
   114    37    52    1
   115    37    67    1
   116    38    53    1
   117    38    68    1
   118    42    48    1
   119    42    72    1
   120    43    44    2
   121    60    73    1
   122    61    74    1
   123    39    69    1
   124    39    57    1
   125    40    70    1
   126    40    50    1
   127    41    71    1
   128    41    49    1
