@<TRIPOS>MOLECULE
*****
 123 128 0 0 0
SMALL
GASTEIGER

@<TRIPOS>ATOM
     1 C         -0.632719   4.077177   -0.411168 C.3        1 UNL1     0.0009
     2 C         -2.248257   4.94059   -0.696811 C.2        1 UNL1     -0.0787
     3 C         -3.190742   5.577915   -1.592125 C.2        1 UNL1     -0.0649
     4 C         -4.746571   6.142214   -1.235307 C.2        1 UNL1     -0.0542
     5 C         -6.002626   6.506822   -1.779794 C.2        1 UNL1     0.0115
     6 C         -6.763308   6.791299   -3.104089 C.3        1 UNL1     -0.0348
     7 C         -7.278133   6.58251   -0.808022 C.2        1 UNL1     0.2441
     8 O         -7.732506   7.637551   -0.387357 O.2        1 UNL1     -0.2702
     9 N         -7.995301   5.37996   -0.682737 N.am        1 UNL1     -0.2772
     10 C         -7.4721   4.612344   0.332323 C.2        1 UNL1     0.1049
     11 C         -6.420109   3.876424   0.022552 C.2        1 UNL1     0.0801
     12 C         -6.744733   4.7145   2.723522 C.ar        1 UNL1     0.0753
     13 C         -5.524991   4.09886   2.297112 C.ar        1 UNL1     0.0305
     14 C         -5.378093   3.540789   0.954716 C.2        1 UNL1     0.0924
     15 N         -5.892143   3.586725   -1.179053 N.pl3        1 UNL1     -0.3170
     16 C         -4.857317   2.607111   -0.979691 C.3        1 UNL1     0.1275
     17 N         -4.368543   2.854648   0.426562 N.2        1 UNL1     -0.2557
     18 C         -5.529096   1.237435   -0.959584 C.3        1 UNL1     0.0016
     19 C         -6.318199   1.063835   -2.247516 C.3        1 UNL1     0.0026
     20 N         -5.404651   1.18285   -3.375475 N.3        1 UNL1     -0.3018
     21 C         -4.664469   2.444428   -3.44562 C.3        1 UNL1     0.0026
     22 C         -3.875494   2.596131   -2.143929 C.3        1 UNL1     0.0016
     23 C         -5.99074   0.740279   -4.624985 C.3        1 UNL1     0.0012
     24 C         -6.1714   -0.785866   -4.624456 C.3        1 UNL1     -0.0339
     25 C         -7.62977   -1.179418   -4.337526 C.3        1 UNL1     -0.0615
     26 C         -5.683559   -1.368486   -5.939501 C.3        1 UNL1     -0.0615
     27 C         -6.919176   5.135126   4.039866 C.ar        1 UNL1     0.1347
     28 C         -5.964268   4.958148   5.025199 C.ar        1 UNL1     0.0342
     29 C         -4.753024   4.394298   4.571189 C.ar        1 UNL1     0.1435
     30 C         -4.550605   4.001197   3.247664 C.ar        1 UNL1     0.0774
     31 O         -3.766651   4.057484   5.430626 O.3        1 UNL1     -0.4436
     32 C         -2.956041   3.121889   4.703683 C.3        1 UNL1     0.3143
     33 C         -3.226222   3.415753   3.241883 C.2        1 UNL1     0.2504
     34 C         -6.173921   5.152064   6.501187 C.3        1 UNL1     -0.0327
     35 O         -1.586408   3.462423   4.95146 O.2        1 UNL1     -0.4528
     36 C         0.352   0.206439   4.729578 C.3        1 UNL1     0.0854
     37 C         0.44311   -0.819415   3.535072 C.3        1 UNL1     0.0236
     38 C         1.932231   -1.149637   3.039877 C.3        1 UNL1     0.1131
     39 C         2.928031   0.032507   2.703444 C.3        1 UNL1     0.0200
     40 C         2.405889   1.354396   1.83028 C.3        1 UNL1     0.0661
     41 C         1.552967   1.303376   0.364834 C.3        1 UNL1     0.0091
     42 C         0.285465   2.442314   -0.314622 C.3        1 UNL1     0.0661
     43 C         -7.851406   4.809143   1.739359 C.2        1 UNL1     0.2131
     44 O         -9.021451   4.93493   2.052263 O.2        1 UNL1     -0.2851
     45 O         -8.118899   5.76638   4.361768 O.3        1 UNL1     -0.5056
     46 O         -2.502341   3.229262   2.28948 O.2        1 UNL1     -0.2836
     47 C         0.539204   5.093805   -0.466366 C.3        1 UNL1     -0.0566
     48 O         0.916661   2.528704   -1.653742 O.3        1 UNL1     -0.3909
     49 C         1.044926   -0.104069   0.144634 C.3        1 UNL1     -0.0577
     50 O         1.840385   2.327888   2.684823 O.3        1 UNL1     -0.3910
     51 O         1.559974   0.834012   5.096161 O.3        1 UNL1     -0.3753
     52 C         -0.748168   -0.655882   2.535542 C.3        1 UNL1     -0.0564
     53 O         2.018135   -2.365223   2.163922 O.3        1 UNL1     -0.4608
     54 C         2.643508   -2.425074   0.946032 C.2        1 UNL1     0.3042
     55 O         3.468149   -3.257179   0.56999 O.2        1 UNL1     -0.2512
     56 C         2.190853   -1.363144   -0.015281 C.3        1 UNL1     0.0332
     57 C         3.813387   0.303246   4.007676 C.3        1 UNL1     -0.0567
     58 C         -3.503949   1.715234   5.039313 C.3        1 UNL1     0.0210
     59 C         2.081799   1.742069   4.127144 C.3        1 UNL1     0.0372
     60 C         -0.657168   1.286439   4.555389 C.2        1 UNL1     -0.0208
     61 C         -0.567821   2.597732   4.781826 C.2        1 UNL1     0.0882
     62 H         -0.901025   3.96602   0.64636 H        1 UNL1     0.0365
     63 H         -2.618746   5.023247   0.327091 H        1 UNL1     0.0576
     64 H         -3.02665   5.604315   -2.671701 H        1 UNL1     0.0615
     65 H         -4.776606   6.150194   -0.142367 H        1 UNL1     0.0622
     66 H         0.006727   -0.393766   5.583151 H        1 UNL1     0.0645
     67 H         0.142862   -1.781822   3.984722 H        1 UNL1     0.0362
     68 H         2.330886   -1.61577   3.953833 H        1 UNL1     0.0741
     69 H         3.732211   -0.353423   2.091267 H        1 UNL1     0.0359
     70 H         3.381599   1.782549   1.530722 H        1 UNL1     0.0600
     71 H         2.396872   1.34405   -0.351495 H        1 UNL1     0.0348
     72 H         0.817439   3.009683   0.462817 H        1 UNL1     0.0602
     73 H         -1.595999   0.851955   4.3165 H        1 UNL1     0.0628
     74 H         0.365385   3.128066   4.974464 H        1 UNL1     0.1022
     75 H         -6.168516   7.472463   -3.759278 H        1 UNL1     0.0279
     76 H         -6.941593   5.937658   -3.75415 H        1 UNL1     0.0279
     77 H         -7.678072   7.382342   -2.950544 H        1 UNL1     0.0279
     78 H         -7.916698   4.843496   -1.544193 H        1 UNL1     0.1553
     79 H         -6.391302   3.681923   -2.044333 H        1 UNL1     0.1484
     80 H         -4.759494   0.463277   -0.853951 H        1 UNL1     0.0317
     81 H         -6.192802   1.13981   -0.093781 H        1 UNL1     0.0317
     82 H         -7.138417   1.792758   -2.323843 H        1 UNL1     0.0428
     83 H         -6.790437   0.081621   -2.211501 H        1 UNL1     0.0428
     84 H         -3.928103   2.47655   -4.254659 H        1 UNL1     0.0428
     85 H         -5.326898   3.295991   -3.653817 H        1 UNL1     0.0428
     86 H         -3.247348   3.456145   -2.28463 H        1 UNL1     0.0317
     87 H         -3.158648   1.772208   -2.04206 H        1 UNL1     0.0317
     88 H         -6.978525   1.209105   -4.723873 H        1 UNL1     0.0429
     89 H         -5.391784   1.067826   -5.484483 H        1 UNL1     0.0429
     90 H         -5.532533   -1.222916   -3.847894 H        1 UNL1     0.0308
     91 H         -7.769238   -2.262755   -4.401025 H        1 UNL1     0.0233
     92 H         -7.934647   -0.836069   -3.346178 H        1 UNL1     0.0233
     93 H         -8.332089   -0.726099   -5.047515 H        1 UNL1     0.0233
     94 H         -6.144564   -2.346802   -6.113308 H        1 UNL1     0.0233
     95 H         -5.965488   -0.711204   -6.766821 H        1 UNL1     0.0233
     96 H         -4.597079   -1.493079   -5.942127 H        1 UNL1     0.0233
     97 H         -5.966468   4.247178   7.064548 H        1 UNL1     0.0280
     98 H         -5.510916   5.922731   6.915618 H        1 UNL1     0.0280
     99 H         -7.219789   5.444589   6.690086 H        1 UNL1     0.0280
     100 H         -8.367818   6.457477   3.77351 H        1 UNL1     0.2922
     101 H         0.89399   5.301058   0.543005 H        1 UNL1     0.0236
     102 H         0.290277   6.005916   -1.007726 H        1 UNL1     0.0236
     103 H         1.41753   4.685087   -0.993325 H        1 UNL1     0.0236
     104 H         0.40055   3.168348   -2.182378 H        1 UNL1     0.2098
     105 H         1.454818   -0.597304   -0.733158 H        1 UNL1     0.0234
     106 H         1.120218   -0.756657   1.014339 H        1 UNL1     0.0234
     107 H         -0.0   0.0   0.0 H        1 UNL1     0.0234
     108 H         1.296146   2.919631   2.130376 H        1 UNL1     0.2098
     109 H         -0.746163   0.326597   2.043158 H        1 UNL1     0.0234
     110 H         -0.785424   -1.445593   1.777443 H        1 UNL1     0.0234
     111 H         -1.717734   -0.730688   3.045731 H        1 UNL1     0.0234
     112 H         2.649167   -1.52829   -0.995087 H        1 UNL1     0.0342
     113 H         1.105698   -1.317779   -0.094184 H        1 UNL1     0.0342
     114 H         2.538307   -0.390495   0.359411 H        1 UNL1     0.0342
     115 H         4.285124   -0.616842   4.379281 H        1 UNL1     0.0234
     116 H         4.60408   1.041918   3.862012 H        1 UNL1     0.0234
     117 H         3.219936   0.608449   4.886658 H        1 UNL1     0.0234
     118 H         -4.563382   1.745892   5.348614 H        1 UNL1     0.0309
     119 H         -3.391707   1.00273   4.215941 H        1 UNL1     0.0309
     120 H         -3.001998   1.263395   5.901864 H        1 UNL1     0.0309
     121 H         1.461432   2.637676   4.146877 H        1 UNL1     0.0524
     122 H         3.11584   2.049391   4.355945 H        1 UNL1     0.0524
     123 H         2.058351   1.291555   3.138923 H        1 UNL1     0.0524
@<TRIPOS>BOND
     1     1     2    1
     2     1    42    1
     3     2     3    2
     4     3     4    1
     5     4     5    2
     6     5     7    1
     7     6    75    1
     8     6    76    1
     9     6    77    1
    10     7     9   am
    11     9    10    1
    12    10    11    2
    13    10    43    1
    14    11    14    1
    15    11    15    1
    16    12    13   ar
    17    12    27   ar
    18    12    43    1
    19    13    14    1
    20    13    30   ar
    21    14    17    2
    22    15    16    1
    23    16    17    1
    24    16    18    1
    25    16    22    1
    26    18    19    1
    27    19    20    1
    28    20    21    1
    29    21    22    1
    30    23    24    1
    31    23    88    1
    32    23    89    1
    33    24    25    1
    34    24    26    1
    35    24    90    1
    36    25    91    1
    37    25    92    1
    38    25    93    1
    39    26    94    1
    40    26    95    1
    41    26    96    1
    42    27    28   ar
    43    28    29   ar
    44    29    30   ar
    45    29    31    1
    46    30    33    1
    47    31    32    1
    48    32    33    1
    49    32    35    1
    50    34    97    1
    51    34    98    1
    52    34    99    1
    53    35    61    1
    54    36    37    1
    55    36    60    1
    56    37    38    1
    57    38    39    1
    58    39    40    1
    59    40    41    1
    60    41    42    1
    61    45   100    1
    62    47   101    1
    63    47   102    1
    64    47   103    1
    65    48   104    1
    66    49   105    1
    67    49   106    1
    68    49   107    1
    69    50   108    1
    70    51    59    1
    71    52   109    1
    72    52   110    1
    73    52   111    1
    74    53    54    1
    75    54    55    2
    76    54    56    1
    77    56   112    1
    78    56   113    1
    79    56   114    1
    80    57   115    1
    81    57   116    1
    82    57   117    1
    83    58   118    1
    84    58   119    1
    85    58   120    1
    86    59   121    1
    87    59   122    1
    88    59   123    1
    89    60    61    2
    90     1    47    1
    91     1    62    1
    92     2    63    1
    93     3    64    1
    94     4    65    1
    95     5     6    1
    96     7     8    2
    97     9    78    1
    98    15    79    1
    99    18    80    1
   100    18    81    1
   101    19    82    1
   102    19    83    1
   103    20    23    1
   104    21    84    1
   105    21    85    1
   106    22    86    1
   107    22    87    1
   108    27    45    1
   109    28    34    1
   110    32    58    1
   111    33    46    2
   112    36    51    1
   113    36    66    1
   114    37    52    1
   115    37    67    1
   116    38    53    1
   117    38    68    1
   118    42    48    1
   119    42    72    1
   120    43    44    2
   121    60    73    1
   122    61    74    1
   123    39    69    1
   124    39    57    1
   125    40    70    1
   126    40    50    1
   127    41    71    1
   128    41    49    1
