@<TRIPOS>MOLECULE
*****
 123 128 0 0 0
SMALL
GASTEIGER

@<TRIPOS>ATOM
     1 C         0.811749   -4.952771   2.196105 C.3        1 UNL1     0.0009
     2 C         0.700949   -5.987554   3.730375 C.2        1 UNL1     -0.0787
     3 C         1.336339   -6.622323   4.86589 C.2        1 UNL1     -0.0649
     4 C         0.595817   -7.443523   6.147926 C.2        1 UNL1     -0.0542
     5 C         0.75473   -7.903135   7.478558 C.2        1 UNL1     0.0115
     6 C         1.785435   -8.107523   8.622759 C.3        1 UNL1     -0.0348
     7 C         -0.551298   -8.290126   8.327979 C.2        1 UNL1     0.2441
     8 O         -0.903934   -9.446233   8.51663 O.2        1 UNL1     -0.2702
     9 N         -1.114853   -7.229139   9.057954 N.am        1 UNL1     -0.2772
     10 C         -2.021623   -6.542049   8.284004 C.2        1 UNL1     0.1049
     11 C         -1.519969   -5.629938   7.47122 C.2        1 UNL1     0.0801
     12 C         -3.985251   -6.867752   6.76894 C.ar        1 UNL1     0.0753
     13 C         -3.299172   -6.033972   5.829411 C.ar        1 UNL1     0.0305
     14 C         -2.103663   -5.282021   6.204084 C.2        1 UNL1     0.0924
     15 N         -0.283022   -5.106802   7.418124 N.pl3        1 UNL1     -0.3170
     16 C         -0.302681   -4.027982   6.466276 C.3        1 UNL1     0.1275
     17 N         -1.404377   -4.394745   5.502182 N.2        1 UNL1     -0.2557
     18 C         -0.783299   -2.782316   7.204533 C.3        1 UNL1     0.0016
     19 C         0.123367   -2.546544   8.402013 C.3        1 UNL1     0.0026
     20 N         1.49037   -2.379984   7.928105 N.3        1 UNL1     -0.3018
     21 C         2.020706   -3.503172   7.152502 C.3        1 UNL1     0.0026
     22 C         1.097355   -3.719379   5.952263 C.3        1 UNL1     0.0016
     23 C         2.380243   -1.857182   8.945675 C.3        1 UNL1     0.0012
     24 C         2.050828   -0.386291   9.245212 C.3        1 UNL1     -0.0339
     25 C         0.778415   -0.2575   10.098695 C.3        1 UNL1     -0.0615
     26 C         3.239036   0.289016   9.90771 C.3        1 UNL1     -0.0615
     27 C         -5.189887   -7.485242   6.440802 C.ar        1 UNL1     0.1347
     28 C         -5.823388   -7.312439   5.223072 C.ar        1 UNL1     0.0342
     29 C         -5.105314   -6.52685   4.296583 C.ar        1 UNL1     0.1435
     30 C         -3.879991   -5.931427   4.598701 C.ar        1 UNL1     0.0774
     31 O         -5.639912   -6.175635   3.106684 O.3        1 UNL1     -0.4436
     32 C         -4.865289   -5.044507   2.680795 C.3        1 UNL1     0.3143
     33 C         -3.544793   -5.170208   3.413393 C.2        1 UNL1     0.2504
     34 C         -7.22782   -7.734486   4.892093 C.3        1 UNL1     -0.0327
     35 O         -4.58695   -5.219615   1.28612 O.2        1 UNL1     -0.4528
     36 C         -4.322377   -1.72387   -0.169165 C.3        1 UNL1     0.0854
     37 C         -3.365105   -0.541388   0.246636 C.3        1 UNL1     0.0236
     38 C         -2.476575   0.059884   -0.945308 C.3        1 UNL1     0.1131
     39 C         -1.629457   -0.912925   -1.860897 C.3        1 UNL1     0.0200
     40 C         -0.756067   -2.16279   -1.184534 C.3        1 UNL1     0.0661
     41 C         0.31617   -2.031847   0.123431 C.3        1 UNL1     0.0091
     42 C         0.733522   -3.233795   1.444998 C.3        1 UNL1     0.0661
     43 C         -3.417049   -6.981345   8.135141 C.2        1 UNL1     0.2131
     44 O         -4.068105   -7.312263   9.10949 O.2        1 UNL1     -0.2851
     45 O         -5.769644   -8.317183   7.396415 O.3        1 UNL1     -0.5056
     46 O         -2.456824   -4.754867   3.082229 O.2        1 UNL1     -0.2836
     47 C         1.426169   -5.777069   1.032919 C.3        1 UNL1     -0.0566
     48 O         2.198387   -3.046028   1.310722 O.3        1 UNL1     -0.3909
     49 C         0.105519   -0.693149   0.795003 C.3        1 UNL1     -0.0577
     50 O         -1.562239   -3.314077   -1.035037 O.3        1 UNL1     -0.3910
     51 O         -4.15647   -2.219464   -1.478474 O.3        1 UNL1     -0.3753
     52 C         -2.798142   -0.732328   1.691296 C.3        1 UNL1     -0.0564
     53 O         -1.850251   1.383982   -0.61849 O.3        1 UNL1     -0.4608
     54 C         -0.599543   1.789046   -1.005249 C.2        1 UNL1     0.3042
     55 O         0.467188   1.568161   -0.433293 O.2        1 UNL1     -0.2512
     56 C         -0.585371   2.534839   -2.309206 C.3        1 UNL1     0.0332
     57 C         -2.502586   -1.23263   -3.162284 C.3        1 UNL1     -0.0567
     58 C         -5.604806   -3.788417   3.1974 C.3        1 UNL1     0.0210
     59 C         -5.203641   -1.878382   -2.385646 C.3        1 UNL1     0.0372
     60 C         -4.299943   -2.900959   0.741395 C.2        1 UNL1     -0.0208
     61 C         -4.249076   -4.205162   0.46715 C.2        1 UNL1     0.0882
     62 H         -0.277365   -5.026564   2.090762 H        1 UNL1     0.0365
     63 H         -0.356119   -6.261152   3.715514 H        1 UNL1     0.0576
     64 H         2.396835   -6.47707   5.083505 H        1 UNL1     0.0615
     65 H         -0.427144   -7.605451   5.797478 H        1 UNL1     0.0622
     66 H         -5.333808   -1.301013   -0.090132 H        1 UNL1     0.0645
     67 H         -4.050889   0.298336   0.454302 H        1 UNL1     0.0362
     68 H         -3.276945   0.447704   -1.593788 H        1 UNL1     0.0741
     69 H         -0.866295   -0.337388   -2.367601 H        1 UNL1     0.0359
     70 H         -0.083053   -2.404192   -2.029422 H        1 UNL1     0.0600
     71 H         1.264431   -1.854723   -0.420981 H        1 UNL1     0.0348
     72 H         0.286216   -3.821842   0.630485 H        1 UNL1     0.0602
     73 H         -4.462186   -2.574319   1.738507 H        1 UNL1     0.0628
     74 H         -4.028795   -4.620232   -0.516939 H        1 UNL1     0.1022
     75 H         2.708667   -8.601846   8.235046 H        1 UNL1     0.0279
     76 H         2.179616   -7.206472   9.087301 H        1 UNL1     0.0279
     77 H         1.448088   -8.836844   9.373751 H        1 UNL1     0.0279
     78 H         -0.384314   -6.573938   9.328327 H        1 UNL1     0.1553
     79 H         0.373699   -5.151739   8.175508 H        1 UNL1     0.1484
     80 H         -0.76641   -1.929421   6.515293 H        1 UNL1     0.0317
     81 H         -1.82142   -2.898735   7.533777 H        1 UNL1     0.0317
     82 H         0.054715   -3.366228   9.132299 H        1 UNL1     0.0428
     83 H         -0.238228   -1.654882   8.915082 H        1 UNL1     0.0428
     84 H         3.018329   -3.320084   6.741358 H        1 UNL1     0.0428
     85 H         2.147775   -4.402813   7.770414 H        1 UNL1     0.0428
     86 H         1.585536   -4.454923   5.340183 H        1 UNL1     0.0317
     87 H         1.091679   -2.824598   5.317888 H        1 UNL1     0.0317
     88 H         2.231723   -2.44233   9.862647 H        1 UNL1     0.0429
     89 H         3.431975   -1.976179   8.655032 H        1 UNL1     0.0429
     90 H         1.892526   0.146058   8.299825 H        1 UNL1     0.0308
     91 H         0.015502   0.337694   9.587999 H        1 UNL1     0.0233
     92 H         0.368092   -1.2429   10.331571 H        1 UNL1     0.0233
     93 H         0.969566   0.229706   11.062504 H        1 UNL1     0.0233
     94 H         2.90939   1.173869   10.462872 H        1 UNL1     0.0233
     95 H         3.711366   -0.396986   10.616418 H        1 UNL1     0.0233
     96 H         3.983046   0.601492   9.169621 H        1 UNL1     0.0233
     97 H         -7.323257   -8.813991   4.822863 H        1 UNL1     0.0280
     98 H         -7.946709   -7.417799   5.659011 H        1 UNL1     0.0280
     99 H         -7.525867   -7.298472   3.924542 H        1 UNL1     0.0280
     100 H         -5.182845   -8.94917   7.773089 H        1 UNL1     0.2922
     101 H         0.641926   -6.068765   0.334685 H        1 UNL1     0.0236
     102 H         2.008505   -6.632194   1.37443 H        1 UNL1     0.0236
     103 H         2.130458   -5.180439   0.429426 H        1 UNL1     0.0236
     104 H         2.345316   -2.312178   0.682353 H        1 UNL1     0.2098
     105 H         -0.789937   -0.634486   1.408622 H        1 UNL1     0.0234
     106 H         0.967574   -0.320499   1.348103 H        1 UNL1     0.0234
     107 H         0.0   0.0   0.0 H        1 UNL1     0.0234
     108 H         -1.087459   -3.925345   -0.439468 H        1 UNL1     0.2098
     109 H         -3.593142   -0.763667   2.449388 H        1 UNL1     0.0234
     110 H         -2.162183   -1.618599   1.790413 H        1 UNL1     0.0234
     111 H         -2.142766   0.099461   1.982082 H        1 UNL1     0.0234
     112 H         0.441236   2.809999   -2.569419 H        1 UNL1     0.0342
     113 H         -1.052674   1.965851   -3.11153 H        1 UNL1     0.0342
     114 H         -1.160228   3.462248   -2.180294 H        1 UNL1     0.0342
     115 H         -1.874283   -1.358898   -4.054741 H        1 UNL1     0.0234
     116 H         -3.125857   -2.124364   -3.070662 H        1 UNL1     0.0234
     117 H         -3.150075   -0.395155   -3.47427 H        1 UNL1     0.0234
     118 H         -6.056785   -3.206038   2.375478 H        1 UNL1     0.0309
     119 H         -6.37592   -4.018638   3.939414 H        1 UNL1     0.0309
     120 H         -4.929686   -3.069707   3.67466 H        1 UNL1     0.0309
     121 H         -5.22827   -2.641787   -3.162797 H        1 UNL1     0.0524
     122 H         -6.192786   -1.868784   -1.898268 H        1 UNL1     0.0524
     123 H         -5.017455   -0.90236   -2.824747 H        1 UNL1     0.0524
@<TRIPOS>BOND
     1     1     2    1
     2     1    42    1
     3     2     3    2
     4     3     4    1
     5     4     5    2
     6     5     7    1
     7     6    75    1
     8     6    76    1
     9     6    77    1
    10     7     9   am
    11     9    10    1
    12    10    11    2
    13    10    43    1
    14    11    14    1
    15    11    15    1
    16    12    13   ar
    17    12    27   ar
    18    12    43    1
    19    13    14    1
    20    13    30   ar
    21    14    17    2
    22    15    16    1
    23    16    17    1
    24    16    18    1
    25    16    22    1
    26    18    19    1
    27    19    20    1
    28    20    21    1
    29    21    22    1
    30    23    24    1
    31    23    88    1
    32    23    89    1
    33    24    25    1
    34    24    26    1
    35    24    90    1
    36    25    91    1
    37    25    92    1
    38    25    93    1
    39    26    94    1
    40    26    95    1
    41    26    96    1
    42    27    28   ar
    43    28    29   ar
    44    29    30   ar
    45    29    31    1
    46    30    33    1
    47    31    32    1
    48    32    33    1
    49    32    35    1
    50    34    97    1
    51    34    98    1
    52    34    99    1
    53    35    61    1
    54    36    37    1
    55    36    60    1
    56    37    38    1
    57    38    39    1
    58    39    40    1
    59    40    41    1
    60    41    42    1
    61    45   100    1
    62    47   101    1
    63    47   102    1
    64    47   103    1
    65    48   104    1
    66    49   105    1
    67    49   106    1
    68    49   107    1
    69    50   108    1
    70    51    59    1
    71    52   109    1
    72    52   110    1
    73    52   111    1
    74    53    54    1
    75    54    55    2
    76    54    56    1
    77    56   112    1
    78    56   113    1
    79    56   114    1
    80    57   115    1
    81    57   116    1
    82    57   117    1
    83    58   118    1
    84    58   119    1
    85    58   120    1
    86    59   121    1
    87    59   122    1
    88    59   123    1
    89    60    61    2
    90     1    47    1
    91     1    62    1
    92     2    63    1
    93     3    64    1
    94     4    65    1
    95     5     6    1
    96     7     8    2
    97     9    78    1
    98    15    79    1
    99    18    80    1
   100    18    81    1
   101    19    82    1
   102    19    83    1
   103    20    23    1
   104    21    84    1
   105    21    85    1
   106    22    86    1
   107    22    87    1
   108    27    45    1
   109    28    34    1
   110    32    58    1
   111    33    46    2
   112    36    51    1
   113    36    66    1
   114    37    52    1
   115    37    67    1
   116    38    53    1
   117    38    68    1
   118    42    48    1
   119    42    72    1
   120    43    44    2
   121    60    73    1
   122    61    74    1
   123    39    69    1
   124    39    57    1
   125    40    70    1
   126    40    50    1
   127    41    71    1
   128    41    49    1
