@<TRIPOS>MOLECULE
*****
 123 128 0 0 0
SMALL
GASTEIGER

@<TRIPOS>ATOM
     1 C         4.969162   2.247412   0.517985 C.3        1 UNL1     0.0009
     2 C         6.352871   3.127028   -0.347269 C.2        1 UNL1     -0.0787
     3 C         7.663775   3.108048   -0.961448 C.2        1 UNL1     -0.0649
     4 C         8.445597   4.364144   -1.784451 C.2        1 UNL1     -0.0542
     5 C         9.468764   4.685728   -2.710081 C.2        1 UNL1     0.0115
     6 C         10.686446   4.113016   -3.486338 C.3        1 UNL1     -0.0348
     7 C         9.442615   6.120556   -3.429508 C.2        1 UNL1     0.2441
     8 O         10.166366   7.047347   -3.092211 O.2        1 UNL1     -0.2702
     9 N         8.723114   6.161209   -4.636494 N.am        1 UNL1     -0.2772
     10 C         7.397203   6.439502   -4.396009 C.2        1 UNL1     0.1049
     11 C         6.639577   5.412905   -4.054943 C.2        1 UNL1     0.0801
     12 C         5.892457   8.009925   -3.160352 C.ar        1 UNL1     0.0753
     13 C         5.230178   6.848652   -2.64904 C.ar        1 UNL1     0.0305
     14 C         5.500046   5.516048   -3.184193 C.2        1 UNL1     0.0924
     15 N         6.897951   4.094798   -4.10356 N.pl3        1 UNL1     -0.3170
     16 C         5.681304   3.396453   -3.783655 C.3        1 UNL1     0.1275
     17 N         4.915817   4.354545   -2.903989 N.2        1 UNL1     -0.2557
     18 C         4.877943   3.272979   -5.074805 C.3        1 UNL1     0.0016
     19 C         5.740648   2.584474   -6.120411 C.3        1 UNL1     0.0026
     20 N         6.128752   1.273972   -5.617433 N.3        1 UNL1     -0.3018
     21 C         6.854013   1.286068   -4.345341 C.3        1 UNL1     0.0026
     22 C         5.967253   1.977966   -3.308602 C.3        1 UNL1     0.0016
     23 C         6.695323   0.421289   -6.643382 C.3        1 UNL1     0.0012
     24 C         7.796757   1.165516   -7.414568 C.3        1 UNL1     -0.0339
     25 C         7.832986   0.742002   -8.892194 C.3        1 UNL1     -0.0615
     26 C         7.612578   2.665921   -7.267459 C.3        1 UNL1     -0.0615
     27 C         5.543299   9.287941   -2.730374 C.ar        1 UNL1     0.1347
     28 C         4.524875   9.531823   -1.82628 C.ar        1 UNL1     0.0342
     29 C         3.919892   8.370845   -1.299699 C.ar        1 UNL1     0.1435
     30 C         4.283788   7.082699   -1.69401 C.ar        1 UNL1     0.0774
     31 O         2.839519   8.443636   -0.491923 O.3        1 UNL1     -0.4436
     32 C         2.248237   7.137181   -0.558507 C.3        1 UNL1     0.3143
     33 C         3.374323   6.213557   -0.97691 C.2        1 UNL1     0.2504
     34 C         3.929217   10.875544   -1.510517 C.3        1 UNL1     -0.0327
     35 O         1.879781   6.76785   0.776067 O.2        1 UNL1     -0.4528
     36 C         -1.140114   4.494331   0.430473 C.3        1 UNL1     0.0854
     37 C         -1.284471   3.144777   -0.372887 C.3        1 UNL1     0.0236
     38 C         -1.789704   1.893323   0.493338 C.3        1 UNL1     0.1131
     39 C         -1.068034   1.538792   1.855604 C.3        1 UNL1     0.0200
     40 C         0.596451   1.564834   1.961676 C.3        1 UNL1     0.0661
     41 C         1.67239   0.809792   0.889353 C.3        1 UNL1     0.0091
     42 C         3.357451   1.298474   0.353478 C.3        1 UNL1     0.0661
     43 C         6.902285   7.814224   -4.230029 C.2        1 UNL1     0.2131
     44 O         7.240726   8.690688   -5.00463 O.2        1 UNL1     -0.2851
     45 O         6.268011   10.361663   -3.243552 O.3        1 UNL1     -0.5056
     46 O         3.502802   5.031217   -0.750152 O.2        1 UNL1     -0.2836
     47 C         5.34789   1.970774   1.997856 C.3        1 UNL1     -0.0566
     48 O         3.938354   -0.049943   0.561894 O.3        1 UNL1     -0.3909
     49 C         0.915176   0.400659   -0.354324 C.3        1 UNL1     -0.0577
     50 O         1.058389   2.863299   2.275243 O.3        1 UNL1     -0.3910
     51 O         -1.300523   4.399607   1.827874 O.3        1 UNL1     -0.3753
     52 C         -0.184123   3.003027   -1.474745 C.3        1 UNL1     -0.0564
     53 O         -2.25129   0.733463   -0.339722 O.3        1 UNL1     -0.4608
     54 C         -2.054772   -0.589126   -0.039605 C.2        1 UNL1     0.3042
     55 O         -1.224743   -1.35162   -0.533055 O.2        1 UNL1     -0.2512
     56 C         -2.94376   -1.094643   1.060789 C.3        1 UNL1     0.0332
     57 C         -1.900883   2.225845   3.035645 C.3        1 UNL1     -0.0567
     58 C         1.198384   7.189496   -1.692791 C.3        1 UNL1     0.0210
     59 C         -2.515454   4.953694   2.330662 C.3        1 UNL1     0.0372
     60 C         0.129073   5.234657   0.193312 C.2        1 UNL1     -0.0208
     61 C         0.959564   5.824533   1.054169 C.2        1 UNL1     0.0882
     62 H         4.396093   3.182429   0.51115 H        1 UNL1     0.0365
     63 H         5.980765   4.153603   -0.33494 H        1 UNL1     0.0576
     64 H         8.222328   2.17819   -1.089866 H        1 UNL1     0.0615
     65 H         7.857794   5.249572   -1.527572 H        1 UNL1     0.0622
     66 H         -1.941269   5.13628   0.037922 H        1 UNL1     0.0645
     67 H         -2.151033   3.317965   -1.034428 H        1 UNL1     0.0362
     68 H         -2.788277   2.258114   0.778473 H        1 UNL1     0.0741
     69 H         -1.306539   0.517276   2.120235 H        1 UNL1     0.0359
     70 H         0.737035   0.988135   2.895868 H        1 UNL1     0.0600
     71 H         1.798625   -0.166308   1.397536 H        1 UNL1     0.0348
     72 H         3.165249   1.846702   1.287191 H        1 UNL1     0.0602
     73 H         0.268401   5.363278   -0.851337 H        1 UNL1     0.0628
     74 H         0.920007   5.695243   2.136276 H        1 UNL1     0.1022
     75 H         11.481882   3.779521   -2.777046 H        1 UNL1     0.0279
     76 H         10.507812   3.216795   -4.07621 H        1 UNL1     0.0279
     77 H         11.22048   4.880314   -4.065787 H        1 UNL1     0.0279
     78 H         8.76757   5.252019   -5.091987 H        1 UNL1     0.1553
     79 H         7.626042   3.690215   -4.663139 H        1 UNL1     0.1484
     80 H         3.962346   2.703954   -4.873166 H        1 UNL1     0.0317
     81 H         4.561954   4.257984   -5.43476 H        1 UNL1     0.0317
     82 H         6.623999   3.186361   -6.379906 H        1 UNL1     0.0428
     83 H         5.149216   2.508326   -7.033351 H        1 UNL1     0.0428
     84 H         7.063392   0.287117   -3.950285 H        1 UNL1     0.0428
     85 H         7.846458   1.74698   -4.444986 H        1 UNL1     0.0428
     86 H         6.46902   1.850752   -2.367308 H        1 UNL1     0.0317
     87 H         5.03505   1.415046   -3.177396 H        1 UNL1     0.0317
     88 H         7.142253   -0.453047   -6.152377 H        1 UNL1     0.0429
     89 H         5.91968   0.046614   -7.323654 H        1 UNL1     0.0429
     90 H         8.769015   0.937294   -6.961975 H        1 UNL1     0.0308
     91 H         6.828328   0.722404   -9.325067 H        1 UNL1     0.0233
     92 H         8.460766   1.421411   -9.473491 H        1 UNL1     0.0233
     93 H         8.25802   -0.259698   -9.029229 H        1 UNL1     0.0233
     94 H         8.115654   3.190364   -8.087038 H        1 UNL1     0.0233
     95 H         6.549135   2.917633   -7.3086 H        1 UNL1     0.0233
     96 H         8.024594   3.027663   -6.321227 H        1 UNL1     0.0233
     97 H         3.2788   10.838917   -0.641698 H        1 UNL1     0.0280
     98 H         4.697585   11.624825   -1.279338 H        1 UNL1     0.0280
     99 H         3.337085   11.228117   -2.370847 H        1 UNL1     0.0280
     100 H         6.136302   10.519734   -4.16186 H        1 UNL1     0.2922
     101 H         4.444944   1.791366   2.581086 H        1 UNL1     0.0236
     102 H         5.968444   2.752414   2.434817 H        1 UNL1     0.0236
     103 H         5.94033   1.047155   2.108015 H        1 UNL1     0.0236
     104 H         3.204473   -0.656413   0.78231 H        1 UNL1     0.2098
     105 H         0.680593   1.221297   -1.027626 H        1 UNL1     0.0234
     106 H         1.360669   -0.426163   -0.907341 H        1 UNL1     0.0234
     107 H         0.0   -0.0   0.0 H        1 UNL1     0.0234
     108 H         2.019368   2.879057   2.101923 H        1 UNL1     0.2098
     109 H         -0.234855   3.809576   -2.219472 H        1 UNL1     0.0234
     110 H         0.830157   2.94568   -1.065246 H        1 UNL1     0.0234
     111 H         -0.295986   2.068538   -2.040575 H        1 UNL1     0.0234
     112 H         -3.348142   -2.075163   0.79171 H        1 UNL1     0.0342
     113 H         -2.427427   -1.134452   2.018734 H        1 UNL1     0.0342
     114 H         -3.788089   -0.399571   1.166373 H        1 UNL1     0.0342
     115 H         -1.887911   1.619152   3.951583 H        1 UNL1     0.0234
     116 H         -1.553581   3.22668   3.299767 H        1 UNL1     0.0234
     117 H         -2.9843   2.283599   2.833624 H        1 UNL1     0.0234
     118 H         0.166158   7.131196   -1.305342 H        1 UNL1     0.0309
     119 H         1.293709   8.077415   -2.325812 H        1 UNL1     0.0309
     120 H         1.26426   6.328236   -2.366585 H        1 UNL1     0.0309
     121 H         -2.341476   5.244389   3.366319 H        1 UNL1     0.0524
     122 H         -2.822644   5.857882   1.779196 H        1 UNL1     0.0524
     123 H         -3.314147   4.219352   2.276576 H        1 UNL1     0.0524
@<TRIPOS>BOND
     1     1     2    1
     2     1    42    1
     3     2     3    2
     4     3     4    1
     5     4     5    2
     6     5     7    1
     7     6    75    1
     8     6    76    1
     9     6    77    1
    10     7     9   am
    11     9    10    1
    12    10    11    2
    13    10    43    1
    14    11    14    1
    15    11    15    1
    16    12    13   ar
    17    12    27   ar
    18    12    43    1
    19    13    14    1
    20    13    30   ar
    21    14    17    2
    22    15    16    1
    23    16    17    1
    24    16    18    1
    25    16    22    1
    26    18    19    1
    27    19    20    1
    28    20    21    1
    29    21    22    1
    30    23    24    1
    31    23    88    1
    32    23    89    1
    33    24    25    1
    34    24    26    1
    35    24    90    1
    36    25    91    1
    37    25    92    1
    38    25    93    1
    39    26    94    1
    40    26    95    1
    41    26    96    1
    42    27    28   ar
    43    28    29   ar
    44    29    30   ar
    45    29    31    1
    46    30    33    1
    47    31    32    1
    48    32    33    1
    49    32    35    1
    50    34    97    1
    51    34    98    1
    52    34    99    1
    53    35    61    1
    54    36    37    1
    55    36    60    1
    56    37    38    1
    57    38    39    1
    58    39    40    1
    59    40    41    1
    60    41    42    1
    61    45   100    1
    62    47   101    1
    63    47   102    1
    64    47   103    1
    65    48   104    1
    66    49   105    1
    67    49   106    1
    68    49   107    1
    69    50   108    1
    70    51    59    1
    71    52   109    1
    72    52   110    1
    73    52   111    1
    74    53    54    1
    75    54    55    2
    76    54    56    1
    77    56   112    1
    78    56   113    1
    79    56   114    1
    80    57   115    1
    81    57   116    1
    82    57   117    1
    83    58   118    1
    84    58   119    1
    85    58   120    1
    86    59   121    1
    87    59   122    1
    88    59   123    1
    89    60    61    2
    90     1    47    1
    91     1    62    1
    92     2    63    1
    93     3    64    1
    94     4    65    1
    95     5     6    1
    96     7     8    2
    97     9    78    1
    98    15    79    1
    99    18    80    1
   100    18    81    1
   101    19    82    1
   102    19    83    1
   103    20    23    1
   104    21    84    1
   105    21    85    1
   106    22    86    1
   107    22    87    1
   108    27    45    1
   109    28    34    1
   110    32    58    1
   111    33    46    2
   112    36    51    1
   113    36    66    1
   114    37    52    1
   115    37    67    1
   116    38    53    1
   117    38    68    1
   118    42    48    1
   119    42    72    1
   120    43    44    2
   121    60    73    1
   122    61    74    1
   123    39    69    1
   124    39    57    1
   125    40    70    1
   126    40    50    1
   127    41    71    1
   128    41    49    1
