@<TRIPOS>MOLECULE
*****
 123 128 0 0 0
SMALL
GASTEIGER

@<TRIPOS>ATOM
     1 C         -1.059747   -5.034821   1.881291 C.3        1 UNL1     0.0009
     2 C         -2.057184   -6.050326   3.069108 C.2        1 UNL1     -0.0787
     3 C         -2.163297   -6.785882   4.311582 C.2        1 UNL1     -0.0649
     4 C         -3.54605   -7.489097   4.989697 C.2        1 UNL1     -0.0542
     5 C         -4.134206   -7.977818   6.182301 C.2        1 UNL1     0.0115
     6 C         -3.848544   -8.350968   7.663003 C.3        1 UNL1     -0.0348
     7 C         -5.727949   -8.159724   6.244615 C.2        1 UNL1     0.2441
     8 O         -6.278326   -9.246907   6.136709 O.2        1 UNL1     -0.2702
     9 N         -6.432868   -7.028386   6.691061 N.am        1 UNL1     -0.2772
     10 C         -6.732412   -6.200928   5.633277 C.2        1 UNL1     0.1049
     11 C         -5.775965   -5.373636   5.252462 C.2        1 UNL1     0.0801
     12 C         -7.703281   -6.200991   3.327903 C.ar        1 UNL1     0.0753
     13 C         -6.53614   -5.479264   2.921086 C.ar        1 UNL1     0.0305
     14 C         -5.598264   -4.928522   3.896854 C.2        1 UNL1     0.0924
     15 N         -4.619994   -5.052232   5.858234 N.pl3        1 UNL1     -0.3170
     16 C         -4.01863   -3.976903   5.115077 C.3        1 UNL1     0.1275
     17 N         -4.531063   -4.157808   3.707097 N.2        1 UNL1     -0.2557
     18 C         -4.631977   -2.676384   5.625133 C.3        1 UNL1     0.0016
     19 C         -4.420389   -2.595705   7.128566 C.3        1 UNL1     0.0026
     20 N         -2.990918   -2.643851   7.403014 N.3        1 UNL1     -0.3018
     21 C         -2.300024   -3.831019   6.895407 C.3        1 UNL1     0.0026
     22 C         -2.521921   -3.889722   5.383055 C.3        1 UNL1     0.0016
     23 C         -2.665776   -2.275782   8.766631 C.3        1 UNL1     0.0012
     24 C         -2.900945   -0.773553   8.989706 C.3        1 UNL1     -0.0339
     25 C         -3.939998   -0.52511   10.095464 C.3        1 UNL1     -0.0615
     26 C         -1.584452   -0.079827   9.293629 C.3        1 UNL1     -0.0615
     27 C         -8.654219   -6.617865   2.399436 C.ar        1 UNL1     0.1347
     28 C         -8.567172   -6.338149   1.047315 C.ar        1 UNL1     0.0342
     29 C         -7.385548   -5.66916   0.663413 C.ar        1 UNL1     0.1435
     30 C         -6.406869   -5.277153   1.5776 C.ar        1 UNL1     0.0774
     31 O         -7.203828   -5.229119   -0.600845 O.3        1 UNL1     -0.4436
     32 C         -6.177064   -4.231562   -0.493567 C.3        1 UNL1     0.3143
     33 C         -5.427559   -4.569802   0.779244 C.2        1 UNL1     0.2504
     34 C         -9.66178   -6.53044   0.034913 C.3        1 UNL1     -0.0327
     35 O         -5.267101   -4.438213   -1.581002 O.2        1 UNL1     -0.4528
     36 C         -3.848875   -1.017643   -2.415521 C.3        1 UNL1     0.0854
     37 C         -3.078138   -0.004437   -1.484445 C.3        1 UNL1     0.0236
     38 C         -1.64282   0.457563   -2.030486 C.3        1 UNL1     0.1131
     39 C         -0.590723   -0.630168   -2.49114 C.3        1 UNL1     0.0200
     40 C         -0.346255   -2.007316   -1.58222 C.3        1 UNL1     0.0661
     41 C         -0.061856   -2.05713   0.08938 C.3        1 UNL1     0.0091
     42 C         -0.523149   -3.319619   1.337873 C.3        1 UNL1     0.0661
     43 C         -7.912342   -6.413012   4.781726 C.2        1 UNL1     0.2131
     44 O         -8.999723   -6.644005   5.278699 O.2        1 UNL1     -0.2851
     45 O         -9.738041   -7.354701   2.872556 O.3        1 UNL1     -0.5056
     46 O         -4.27506   -4.329242   1.061613 O.2        1 UNL1     -0.2836
     47 C         -0.063826   -5.937309   1.10435 C.3        1 UNL1     -0.0566
     48 O         0.823776   -3.364791   1.956636 O.3        1 UNL1     -0.3909
     49 C         -0.39828   -0.706937   0.682079 C.3        1 UNL1     -0.0577
     50 O         -1.26503   -3.017759   -1.946337 O.3        1 UNL1     -0.3910
     51 O         -3.120532   -1.523596   -3.511404 O.3        1 UNL1     -0.3753
     52 C         -3.337673   -0.293212   0.030217 C.3        1 UNL1     -0.0564
     53 O         -1.092378   1.663569   -1.327001 O.3        1 UNL1     -0.4608
     54 C         0.225868   1.868665   -1.013805 C.2        1 UNL1     0.3042
     55 O         0.761015   1.739078   0.086496 O.2        1 UNL1     -0.2512
     56 C         1.074733   2.237722   -2.196995 C.3        1 UNL1     0.0332
     57 C         -0.733011   -0.798261   -4.075335 C.3        1 UNL1     -0.0567
     58 C         -6.900388   -2.878196   -0.301912 C.3        1 UNL1     0.0210
     59 C         -3.520156   -1.014612   -4.783058 C.3        1 UNL1     0.0372
     60 C         -4.440404   -2.190138   -1.715158 C.2        1 UNL1     -0.0208
     61 C         -4.434227   -3.483933   -2.038887 C.2        1 UNL1     0.0882
     62 H         -1.950166   -4.934748   1.248953 H        1 UNL1     0.0365
     63 H         -2.991892   -6.153271   2.513957 H        1 UNL1     0.0576
     64 H         -1.343797   -6.811697   5.033289 H        1 UNL1     0.0615
     65 H         -4.269436   -7.484705   4.169833 H        1 UNL1     0.0622
     66 H         -4.698328   -0.440813   -2.807621 H        1 UNL1     0.0645
     67 H         -3.657067   0.931585   -1.569677 H        1 UNL1     0.0362
     68 H         -1.953658   0.971781   -2.952702 H        1 UNL1     0.0741
     69 H         0.392347   -0.178797   -2.506813 H        1 UNL1     0.0359
     70 H         0.619063   -2.345855   -2.004846 H        1 UNL1     0.0600
     71 H         1.045412   -2.028134   0.098007 H        1 UNL1     0.0348
     72 H         -0.579016   -3.823563   0.362047 H        1 UNL1     0.0602
     73 H         -5.032606   -1.849295   -0.902526 H        1 UNL1     0.0628
     74 H         -3.810592   -3.921362   -2.819254 H        1 UNL1     0.1022
     75 H         -2.795829   -8.096634   7.93529 H        1 UNL1     0.0279
     76 H         -4.421349   -7.816142   8.417273 H        1 UNL1     0.0279
     77 H         -3.861473   -9.436737   7.838043 H        1 UNL1     0.0279
     78 H         -5.854282   -6.498908   7.339883 H        1 UNL1     0.1553
     79 H         -4.440724   -5.205981   6.833506 H        1 UNL1     0.1484
     80 H         -4.160291   -1.831841   5.108389 H        1 UNL1     0.0317
     81 H         -5.700924   -2.629654   5.390997 H        1 UNL1     0.0317
     82 H         -4.95244   -3.399575   7.658307 H        1 UNL1     0.0428
     83 H         -4.866812   -1.66189   7.471708 H        1 UNL1     0.0428
     84 H         -1.216071   -3.804917   7.044322 H        1 UNL1     0.0428
     85 H         -2.61908   -4.743952   7.417013 H        1 UNL1     0.0428
     86 H         -1.896887   -4.68867   5.029497 H        1 UNL1     0.0317
     87 H         -2.091313   -3.000657   4.906363 H        1 UNL1     0.0317
     88 H         -3.327967   -2.836818   9.438968 H        1 UNL1     0.0429
     89 H         -1.635816   -2.557397   9.020894 H        1 UNL1     0.0429
     90 H         -3.267789   -0.325286   8.058741 H        1 UNL1     0.0308
     91 H         -3.744028   -1.148814   10.972785 H        1 UNL1     0.0233
     92 H         -3.941283   0.525449   10.395353 H        1 UNL1     0.0233
     93 H         -4.961736   -0.750518   9.766713 H        1 UNL1     0.0233
     94 H         -1.768549   0.935738   9.66047 H        1 UNL1     0.0233
     95 H         -1.044869   -0.626743   10.071894 H        1 UNL1     0.0233
     96 H         -0.952031   -0.016445   8.403688 H        1 UNL1     0.0233
     97 H         -9.921775   -5.602318   -0.46531 H        1 UNL1     0.0280
     98 H         -9.37177   -7.229465   -0.760394 H        1 UNL1     0.0280
     99 H         -10.564119   -6.917449   0.536016 H        1 UNL1     0.0280
     100 H         -9.507331   -8.074251   3.433487 H        1 UNL1     0.2922
     101 H         0.251946   -5.434539   0.190476 H        1 UNL1     0.0236
     102 H         -0.453393   -6.935681   0.908202 H        1 UNL1     0.0236
     103 H         0.869069   -6.105398   1.667951 H        1 UNL1     0.0236
     104 H         1.360601   -2.658681   1.546516 H        1 UNL1     0.2098
     105 H         -1.463327   -0.511935   0.779349 H        1 UNL1     0.0234
     106 H         0.114336   -0.479356   1.616616 H        1 UNL1     0.0234
     107 H         0.0   0.0   0.0 H        1 UNL1     0.0234
     108 H         -1.236455   -3.700839   -1.248947 H        1 UNL1     0.2098
     109 H         -4.400649   -0.204056   0.2945 H        1 UNL1     0.0234
     110 H         -2.960492   -1.269573   0.353011 H        1 UNL1     0.0234
     111 H         -2.810087   0.42236   0.674853 H        1 UNL1     0.0234
     112 H         2.115065   2.366185   -1.883061 H        1 UNL1     0.0342
     113 H         0.996559   1.507312   -3.000881 H        1 UNL1     0.0342
     114 H         0.719229   3.201368   -2.587082 H        1 UNL1     0.0342
     115 H         0.233067   -1.015698   -4.551363 H        1 UNL1     0.0234
     116 H         -1.43162   -1.580907   -4.377755 H        1 UNL1     0.0234
     117 H         -1.020524   0.133307   -4.5925 H        1 UNL1     0.0234
     118 H         -6.799067   -2.225053   -1.186301 H        1 UNL1     0.0309
     119 H         -7.961778   -2.989049   -0.058262 H        1 UNL1     0.0309
     120 H         -6.464853   -2.279432   0.505489 H        1 UNL1     0.0309
     121 H         -3.255926   -1.758794   -5.533879 H        1 UNL1     0.0524
     122 H         -4.609116   -0.852357   -4.845325 H        1 UNL1     0.0524
     123 H         -3.011627   -0.077093   -4.989335 H        1 UNL1     0.0524
@<TRIPOS>BOND
     1     1     2    1
     2     1    42    1
     3     2     3    2
     4     3     4    1
     5     4     5    2
     6     5     7    1
     7     6    75    1
     8     6    76    1
     9     6    77    1
    10     7     9   am
    11     9    10    1
    12    10    11    2
    13    10    43    1
    14    11    14    1
    15    11    15    1
    16    12    13   ar
    17    12    27   ar
    18    12    43    1
    19    13    14    1
    20    13    30   ar
    21    14    17    2
    22    15    16    1
    23    16    17    1
    24    16    18    1
    25    16    22    1
    26    18    19    1
    27    19    20    1
    28    20    21    1
    29    21    22    1
    30    23    24    1
    31    23    88    1
    32    23    89    1
    33    24    25    1
    34    24    26    1
    35    24    90    1
    36    25    91    1
    37    25    92    1
    38    25    93    1
    39    26    94    1
    40    26    95    1
    41    26    96    1
    42    27    28   ar
    43    28    29   ar
    44    29    30   ar
    45    29    31    1
    46    30    33    1
    47    31    32    1
    48    32    33    1
    49    32    35    1
    50    34    97    1
    51    34    98    1
    52    34    99    1
    53    35    61    1
    54    36    37    1
    55    36    60    1
    56    37    38    1
    57    38    39    1
    58    39    40    1
    59    40    41    1
    60    41    42    1
    61    45   100    1
    62    47   101    1
    63    47   102    1
    64    47   103    1
    65    48   104    1
    66    49   105    1
    67    49   106    1
    68    49   107    1
    69    50   108    1
    70    51    59    1
    71    52   109    1
    72    52   110    1
    73    52   111    1
    74    53    54    1
    75    54    55    2
    76    54    56    1
    77    56   112    1
    78    56   113    1
    79    56   114    1
    80    57   115    1
    81    57   116    1
    82    57   117    1
    83    58   118    1
    84    58   119    1
    85    58   120    1
    86    59   121    1
    87    59   122    1
    88    59   123    1
    89    60    61    2
    90     1    47    1
    91     1    62    1
    92     2    63    1
    93     3    64    1
    94     4    65    1
    95     5     6    1
    96     7     8    2
    97     9    78    1
    98    15    79    1
    99    18    80    1
   100    18    81    1
   101    19    82    1
   102    19    83    1
   103    20    23    1
   104    21    84    1
   105    21    85    1
   106    22    86    1
   107    22    87    1
   108    27    45    1
   109    28    34    1
   110    32    58    1
   111    33    46    2
   112    36    51    1
   113    36    66    1
   114    37    52    1
   115    37    67    1
   116    38    53    1
   117    38    68    1
   118    42    48    1
   119    42    72    1
   120    43    44    2
   121    60    73    1
   122    61    74    1
   123    39    69    1
   124    39    57    1
   125    40    70    1
   126    40    50    1
   127    41    71    1
   128    41    49    1
