@<TRIPOS>MOLECULE
*****
 123 128 0 0 0
SMALL
GASTEIGER

@<TRIPOS>ATOM
     1 C         4.239988   0.04383   3.012028 C.3        1 UNL1     0.0009
     2 C         5.063243   -1.013711   4.293002 C.2        1 UNL1     -0.0787
     3 C         5.506449   -1.219964   5.655748 C.2        1 UNL1     -0.0649
     4 C         6.184198   -2.617584   6.329298 C.2        1 UNL1     -0.0542
     5 C         6.451976   -3.313695   7.533791 C.2        1 UNL1     0.0115
     6 C         6.448059   -3.192755   9.082558 C.3        1 UNL1     -0.0348
     7 C         6.786897   -4.882229   7.466567 C.2        1 UNL1     0.2441
     8 O         7.923496   -5.324613   7.561248 O.2        1 UNL1     -0.2702
     9 N         5.667305   -5.727817   7.553995 N.am        1 UNL1     -0.2772
     10 C         5.137442   -5.953773   6.30439 C.2        1 UNL1     0.1049
     11 C         4.318711   -5.025923   5.842877 C.2        1 UNL1     0.0801
     12 C         5.763135   -6.615211   3.97451 C.ar        1 UNL1     0.0753
     13 C         5.02962   -5.467257   3.53546 C.ar        1 UNL1     0.0305
     14 C         4.174463   -4.710884   4.447413 C.2        1 UNL1     0.0924
     15 N         3.745437   -3.987677   6.475277 N.pl3        1 UNL1     -0.3170
     16 C         2.806867   -3.383901   5.567095 C.3        1 UNL1     0.1275
     17 N         3.355371   -3.693717   4.195643 N.2        1 UNL1     -0.2557
     18 C         1.499195   -4.160846   5.68563 C.3        1 UNL1     0.0016
     19 C         1.058811   -4.152629   7.140822 C.3        1 UNL1     0.0026
     20 N         0.888425   -2.771453   7.570184 N.3        1 UNL1     -0.3018
     21 C         2.077394   -1.927318   7.435436 C.3        1 UNL1     0.0026
     22 C         2.499632   -1.946343   5.965318 C.3        1 UNL1     0.0016
     23 C         0.189047   -2.656089   8.834385 C.3        1 UNL1     0.0012
     24 C         0.889187   -1.636159   9.746144 C.3        1 UNL1     -0.0339
     25 C         0.178472   -0.273084   9.714992 C.3        1 UNL1     -0.0615
     26 C         0.98797   -2.182898   11.159685 C.3        1 UNL1     -0.0615
     27 C         6.47943   -7.401398   3.075094 C.ar        1 UNL1     0.1347
     28 C         6.504356   -7.163077   1.712511 C.ar        1 UNL1     0.0342
     29 C         5.815156   -5.999521   1.309641 C.ar        1 UNL1     0.1435
     30 C         5.12315   -5.182066   2.204132 C.ar        1 UNL1     0.0774
     31 O         5.654765   -5.691913   0.004015 O.3        1 UNL1     -0.4436
     32 C         4.553404   -4.771399   -0.019052 C.3        1 UNL1     0.3143
     33 C         4.512296   -4.167964   1.370333 C.2        1 UNL1     0.2504
     34 C         7.037751   -8.098502   0.663431 C.3        1 UNL1     -0.0327
     35 O         4.900199   -3.714797   -0.922699 O.2        1 UNL1     -0.4528
     36 C         1.623124   -2.480882   -2.387731 C.3        1 UNL1     0.0854
     37 C         0.348454   -1.921188   -1.64646 C.3        1 UNL1     0.0236
     38 C         -0.131276   -0.469255   -2.12967 C.3        1 UNL1     0.1131
     39 C         0.911647   0.717782   -2.204009 C.3        1 UNL1     0.0200
     40 C         2.013258   0.952852   -0.973711 C.3        1 UNL1     0.0661
     41 C         1.653358   1.021802   0.682588 C.3        1 UNL1     0.0091
     42 C         2.643877   0.506203   2.138072 C.3        1 UNL1     0.0661
     43 C         5.662952   -6.992728   5.406188 C.2        1 UNL1     0.2131
     44 O         5.892368   -8.113059   5.824477 O.2        1 UNL1     -0.2851
     45 O         7.203571   -8.474361   3.590661 O.3        1 UNL1     -0.5056
     46 O         4.090657   -3.084819   1.709259 O.2        1 UNL1     -0.2836
     47 C         5.181049   1.201315   2.582359 C.3        1 UNL1     -0.0566
     48 O         2.401853   1.761035   2.89036 O.3        1 UNL1     -0.3909
     49 C         0.248904   0.503858   0.898773 C.3        1 UNL1     -0.0577
     50 O         3.173349   0.173316   -1.184034 O.3        1 UNL1     -0.3910
     51 O         2.281292   -1.578568   -3.248007 O.3        1 UNL1     -0.3753
     52 C         0.314323   -2.350271   -0.14324 C.3        1 UNL1     -0.0564
     53 O         -1.51734   -0.113392   -1.677437 O.3        1 UNL1     -0.4608
     54 C         -2.016055   -0.306089   -0.41566 C.2        1 UNL1     0.3042
     55 O         -2.342949   -1.372652   0.1034 O.2        1 UNL1     -0.2512
     56 C         -2.098771   0.954447   0.39731 C.3        1 UNL1     0.0332
     57 C         1.447369   0.795542   -3.709043 C.3        1 UNL1     -0.0567
     58 C         3.27836   -5.620126   -0.232254 C.3        1 UNL1     0.0210
     59 C         1.605059   -1.321332   -4.477805 C.3        1 UNL1     0.0372
     60 C         2.664355   -3.061575   -1.49678 C.2        1 UNL1     -0.0208
     61 C         3.989325   -2.909345   -1.501959 C.2        1 UNL1     0.0882
     62 H         4.382406   -0.762494   2.28246 H        1 UNL1     0.0365
     63 H         5.389593   -1.857428   3.68136 H        1 UNL1     0.0576
     64 H         5.27966   -0.50127   6.446414 H        1 UNL1     0.0615
     65 H         6.443455   -3.226867   5.459216 H        1 UNL1     0.0622
     66 H         1.245309   -3.316205   -2.993981 H        1 UNL1     0.0645
     67 H         -0.475712   -2.55777   -2.012621 H        1 UNL1     0.0362
     68 H         -0.387251   -0.698659   -3.175315 H        1 UNL1     0.0741
     69 H         0.371559   1.655026   -2.220974 H        1 UNL1     0.0359
     70 H         2.331688   1.988829   -1.198243 H        1 UNL1     0.0600
     71 H         1.503233   2.112691   0.802515 H        1 UNL1     0.0348
     72 H         3.358067   0.617778   1.309339 H        1 UNL1     0.0602
     73 H         2.215199   -3.779407   -0.856293 H        1 UNL1     0.0628
     74 H         4.521298   -2.156836   -2.08503 H        1 UNL1     0.1022
     75 H         6.581611   -2.128411   9.392995 H        1 UNL1     0.0279
     76 H         5.526123   -3.470431   9.588522 H        1 UNL1     0.0279
     77 H         7.324846   -3.666076   9.548298 H        1 UNL1     0.0279
     78 H         4.945499   -5.282551   8.116854 H        1 UNL1     0.1553
     79 H         3.654723   -3.924216   7.472612 H        1 UNL1     0.1484
     80 H         0.747023   -3.695911   5.036909 H        1 UNL1     0.0317
     81 H         1.622747   -5.190805   5.334103 H        1 UNL1     0.0317
     82 H         1.775221   -4.682182   7.785991 H        1 UNL1     0.0428
     83 H         0.125725   -4.713464   7.20299 H        1 UNL1     0.0428
     84 H         1.900936   -0.877379   7.689014 H        1 UNL1     0.0428
     85 H         2.878123   -2.236523   8.121397 H        1 UNL1     0.0428
     86 H         3.285124   -1.218504   5.880228 H        1 UNL1     0.0317
     87 H         1.699773   -1.530773   5.340319 H        1 UNL1     0.0317
     88 H         -0.829466   -2.300874   8.630065 H        1 UNL1     0.0429
     89 H         0.096284   -3.631432   9.329235 H        1 UNL1     0.0429
     90 H         1.922213   -1.499204   9.405098 H        1 UNL1     0.0308
     91 H         0.882734   0.538006   9.507027 H        1 UNL1     0.0233
     92 H         -0.610244   -0.265864   8.959027 H        1 UNL1     0.0233
     93 H         -0.309154   -0.034476   10.667946 H        1 UNL1     0.0233
     94 H         0.883434   -1.37056   11.887019 H        1 UNL1     0.0233
     95 H         0.183669   -2.901787   11.339296 H        1 UNL1     0.0233
     96 H         1.948238   -2.677737   11.329943 H        1 UNL1     0.0233
     97 H         7.171842   -7.603426   -0.293726 H        1 UNL1     0.0280
     98 H         8.021796   -8.504152   0.93243 H        1 UNL1     0.0280
     99 H         6.334689   -8.935944   0.52383 H        1 UNL1     0.0280
     100 H         6.67871   -9.207483   3.860248 H        1 UNL1     0.2922
     101 H         4.729343   2.158311   2.842699 H        1 UNL1     0.0236
     102 H         5.464828   1.155399   1.531481 H        1 UNL1     0.0236
     103 H         6.136678   1.18402   3.132511 H        1 UNL1     0.0236
     104 H         3.268472   2.093573   3.19591 H        1 UNL1     0.2098
     105 H         0.153069   -0.206607   1.716005 H        1 UNL1     0.0234
     106 H         -0.514427   1.277646   0.979432 H        1 UNL1     0.0234
     107 H         -0.0   0.0   0.0 H        1 UNL1     0.0234
     108 H         3.044702   -0.319264   -2.017451 H        1 UNL1     0.2098
     109 H         0.938756   -1.703072   0.488369 H        1 UNL1     0.0234
     110 H         -0.699681   -2.395856   0.268417 H        1 UNL1     0.0234
     111 H         0.70424   -3.367347   -0.003714 H        1 UNL1     0.0234
     112 H         -1.094545   1.273636   0.692259 H        1 UNL1     0.0342
     113 H         -2.621762   1.749549   -0.131971 H        1 UNL1     0.0342
     114 H         -2.66512   0.735592   1.313015 H        1 UNL1     0.0342
     115 H         0.855046   1.492424   -4.317894 H        1 UNL1     0.0234
     116 H         2.494137   1.094393   -3.792787 H        1 UNL1     0.0234
     117 H         1.315472   -0.144433   -4.272063 H        1 UNL1     0.0234
     118 H         2.594778   -5.163472   -0.969268 H        1 UNL1     0.0309
     119 H         3.493372   -6.650298   -0.533448 H        1 UNL1     0.0309
     120 H         2.66417   -5.690531   0.672135 H        1 UNL1     0.0309
     121 H         2.079176   -0.455919   -4.940006 H        1 UNL1     0.0524
     122 H         1.688779   -2.163044   -5.1853 H        1 UNL1     0.0524
     123 H         0.553802   -1.11891   -4.293473 H        1 UNL1     0.0524
@<TRIPOS>BOND
     1     1     2    1
     2     1    42    1
     3     2     3    2
     4     3     4    1
     5     4     5    2
     6     5     7    1
     7     6    75    1
     8     6    76    1
     9     6    77    1
    10     7     9   am
    11     9    10    1
    12    10    11    2
    13    10    43    1
    14    11    14    1
    15    11    15    1
    16    12    13   ar
    17    12    27   ar
    18    12    43    1
    19    13    14    1
    20    13    30   ar
    21    14    17    2
    22    15    16    1
    23    16    17    1
    24    16    18    1
    25    16    22    1
    26    18    19    1
    27    19    20    1
    28    20    21    1
    29    21    22    1
    30    23    24    1
    31    23    88    1
    32    23    89    1
    33    24    25    1
    34    24    26    1
    35    24    90    1
    36    25    91    1
    37    25    92    1
    38    25    93    1
    39    26    94    1
    40    26    95    1
    41    26    96    1
    42    27    28   ar
    43    28    29   ar
    44    29    30   ar
    45    29    31    1
    46    30    33    1
    47    31    32    1
    48    32    33    1
    49    32    35    1
    50    34    97    1
    51    34    98    1
    52    34    99    1
    53    35    61    1
    54    36    37    1
    55    36    60    1
    56    37    38    1
    57    38    39    1
    58    39    40    1
    59    40    41    1
    60    41    42    1
    61    45   100    1
    62    47   101    1
    63    47   102    1
    64    47   103    1
    65    48   104    1
    66    49   105    1
    67    49   106    1
    68    49   107    1
    69    50   108    1
    70    51    59    1
    71    52   109    1
    72    52   110    1
    73    52   111    1
    74    53    54    1
    75    54    55    2
    76    54    56    1
    77    56   112    1
    78    56   113    1
    79    56   114    1
    80    57   115    1
    81    57   116    1
    82    57   117    1
    83    58   118    1
    84    58   119    1
    85    58   120    1
    86    59   121    1
    87    59   122    1
    88    59   123    1
    89    60    61    2
    90     1    47    1
    91     1    62    1
    92     2    63    1
    93     3    64    1
    94     4    65    1
    95     5     6    1
    96     7     8    2
    97     9    78    1
    98    15    79    1
    99    18    80    1
   100    18    81    1
   101    19    82    1
   102    19    83    1
   103    20    23    1
   104    21    84    1
   105    21    85    1
   106    22    86    1
   107    22    87    1
   108    27    45    1
   109    28    34    1
   110    32    58    1
   111    33    46    2
   112    36    51    1
   113    36    66    1
   114    37    52    1
   115    37    67    1
   116    38    53    1
   117    38    68    1
   118    42    48    1
   119    42    72    1
   120    43    44    2
   121    60    73    1
   122    61    74    1
   123    39    69    1
   124    39    57    1
   125    40    70    1
   126    40    50    1
   127    41    71    1
   128    41    49    1
