@<TRIPOS>MOLECULE
*****
 123 128 0 0 0
SMALL
GASTEIGER

@<TRIPOS>ATOM
     1 C         -2.268612   2.423925   -4.224498 C.3        1 UNL1     0.0009
     2 C         -2.470443   4.077371   -5.038388 C.2        1 UNL1     -0.0787
     3 C         -3.306591   5.196339   -5.418931 C.2        1 UNL1     -0.0649
     4 C         -2.831457   6.652337   -6.140509 C.2        1 UNL1     -0.0542
     5 C         -3.193811   8.000192   -6.383539 C.2        1 UNL1     0.0115
     6 C         -4.357303   9.025225   -6.289108 C.3        1 UNL1     -0.0348
     7 C         -2.053973   9.045674   -6.813336 C.2        1 UNL1     0.2441
     8 O         -1.894656   9.419335   -7.967251 O.2        1 UNL1     -0.2702
     9 N         -1.421853   9.701126   -5.742374 N.am        1 UNL1     -0.2772
     10 C         -0.348952   8.965001   -5.294797 C.2        1 UNL1     0.1049
     11 C         -0.624988   7.989033   -4.448918 C.2        1 UNL1     0.0801
     12 C         1.694235   7.75603   -6.082902 C.ar        1 UNL1     0.0753
     13 C         1.238644   6.642359   -5.307802 C.ar        1 UNL1     0.0305
     14 C         0.132421   6.769973   -4.361739 C.2        1 UNL1     0.0924
     15 N         -1.760436   7.719012   -3.782303 N.pl3        1 UNL1     -0.3170
     16 C         -1.484815   6.649515   -2.860096 C.3        1 UNL1     0.1275
     17 N         -0.353267   5.881927   -3.498947 N.2        1 UNL1     -0.2557
     18 C         -0.908343   7.279823   -1.595939 C.3        1 UNL1     0.0016
     19 C         -1.891459   8.317572   -1.078107 C.3        1 UNL1     0.0026
     20 N         -3.162598   7.661816   -0.803845 N.3        1 UNL1     -0.3018
     21 C         -3.766292   6.973309   -1.946596 C.3        1 UNL1     0.0026
     22 C         -2.763631   5.932455   -2.447781 C.3        1 UNL1     0.0016
     23 C         -4.068683   8.488639   -0.031824 C.3        1 UNL1     0.0012
     24 C         -4.188559   9.886678   -0.65862 C.3        1 UNL1     -0.0339
     25 C         -3.091046   10.830982   -0.141117 C.3        1 UNL1     -0.0615
     26 C         -4.167028   9.781746   -2.173647 C.3        1 UNL1     -0.0615
     27 C         2.824094   7.658547   -6.891626 C.ar        1 UNL1     0.1347
     28 C         3.599906   6.516148   -6.975827 C.ar        1 UNL1     0.0342
     29 C         3.104473   5.417395   -6.242034 C.ar        1 UNL1     0.1435
     30 C         1.953781   5.489473   -5.455946 C.ar        1 UNL1     0.0774
     31 O         3.805974   4.267913   -6.134362 O.3        1 UNL1     -0.4436
     32 C         3.252689   3.611839   -4.983574 C.3        1 UNL1     0.3143
     33 C         1.858591   4.186126   -4.832254 C.2        1 UNL1     0.2504
     34 C         4.95501   6.416049   -7.619078 C.3        1 UNL1     -0.0327
     35 O         3.099387   2.226408   -5.315738 O.2        1 UNL1     -0.4528
     36 C         3.49902   0.324187   -2.055379 C.3        1 UNL1     0.0854
     37 C         2.685399   0.467825   -0.711909 C.3        1 UNL1     0.0236
     38 C         2.023282   -0.890222   -0.17427 C.3        1 UNL1     0.1131
     39 C         1.14441   -1.774357   -1.148004 C.3        1 UNL1     0.0200
     40 C         0.032843   -1.059852   -2.166011 C.3        1 UNL1     0.0661
     41 C         -1.139957   0.079374   -1.714 C.3        1 UNL1     0.0091
     42 C         -1.863423   1.479256   -2.653325 C.3        1 UNL1     0.0661
     43 C         0.975726   9.045239   -5.928156 C.2        1 UNL1     0.2131
     44 O         1.466237   10.126024   -6.200257 O.2        1 UNL1     -0.2851
     45 O         3.173663   8.774727   -7.648847 O.3        1 UNL1     -0.5056
     46 O         0.883166   3.674174   -4.329953 O.2        1 UNL1     -0.2836
     47 C         -2.871065   1.306134   -5.117569 C.3        1 UNL1     -0.0566
     48 O         -3.26331   1.143157   -2.297701 O.3        1 UNL1     -0.3909
     49 C         -0.808603   0.59915   -0.332866 C.3        1 UNL1     -0.0577
     50 O         0.643168   -0.669476   -3.379615 O.3        1 UNL1     -0.3910
     51 O         3.400861   -0.923297   -2.70467 O.3        1 UNL1     -0.3753
     52 C         1.948665   1.844096   -0.622186 C.3        1 UNL1     -0.0564
     53 O         1.565142   -0.811122   1.252676 O.3        1 UNL1     -0.4608
     54 C         2.299854   -0.314193   2.297276 C.2        1 UNL1     0.3042
     55 O         3.318288   -0.797226   2.790541 O.2        1 UNL1     -0.2512
     56 C         1.788407   0.997172   2.822116 C.3        1 UNL1     0.0332
     57 C         2.093219   -2.908041   -1.758495 C.3        1 UNL1     -0.0567
     58 C         4.108591   4.054522   -3.774031 C.3        1 UNL1     0.0210
     59 C         3.307921   -2.047861   -1.831409 C.3        1 UNL1     0.0372
     60 C         3.210721   1.364977   -3.079489 C.2        1 UNL1     -0.0208
     61 C         2.999994   1.251733   -4.391554 C.2        1 UNL1     0.0882
     62 H         -1.196779   2.463594   -4.453212 H        1 UNL1     0.0365
     63 H         -1.468622   4.227143   -5.446299 H        1 UNL1     0.0576
     64 H         -4.351644   5.261793   -5.107983 H        1 UNL1     0.0615
     65 H         -1.811853   6.453571   -6.481659 H        1 UNL1     0.0622
     66 H         4.547247   0.473726   -1.760585 H        1 UNL1     0.0645
     67 H         3.46031   0.651785   0.052443 H        1 UNL1     0.0362
     68 H         2.934912   -1.478525   0.011073 H        1 UNL1     0.0741
     69 H         0.53018   -2.439139   -0.555386 H        1 UNL1     0.0359
     70 H         -0.575929   -1.944357   -2.434542 H        1 UNL1     0.0600
     71 H         -1.990204   -0.595532   -1.493686 H        1 UNL1     0.0348
     72 H         -1.423483   0.805979   -3.403303 H        1 UNL1     0.0602
     73 H         3.313415   2.325774   -2.639522 H        1 UNL1     0.0628
     74 H         2.825995   0.30766   -4.908941 H        1 UNL1     0.1022
     75 H         -4.454253   9.597204   -7.243296 H        1 UNL1     0.0279
     76 H         -5.356186   8.614722   -6.159531 H        1 UNL1     0.0279
     77 H         -4.154664   9.833627   -5.571386 H        1 UNL1     0.0279
     78 H         -2.073749   9.795426   -4.966348 H        1 UNL1     0.1553
     79 H         -2.492345   8.389367   -3.634432 H        1 UNL1     0.1484
     80 H         -0.728973   6.492596   -0.853736 H        1 UNL1     0.0317
     81 H         0.061648   7.746381   -1.798652 H        1 UNL1     0.0317
     82 H         -2.019376   9.147433   -1.788656 H        1 UNL1     0.0428
     83 H         -1.459924   8.755771   -0.177657 H        1 UNL1     0.0428
     84 H         -4.678186   6.422778   -1.695245 H        1 UNL1     0.0428
     85 H         -4.086618   7.678427   -2.72603 H        1 UNL1     0.0428
     86 H         -3.286674   5.361675   -3.192512 H        1 UNL1     0.0317
     87 H         -2.561719   5.196786   -1.65967 H        1 UNL1     0.0317
     88 H         -5.058584   8.014047   -0.044165 H        1 UNL1     0.0429
     89 H         -3.754988   8.551005   1.018167 H        1 UNL1     0.0429
     90 H         -5.16558   10.3129   -0.401758 H        1 UNL1     0.0308
     91 H         -3.255201   11.857066   -0.48362 H        1 UNL1     0.0233
     92 H         -3.054301   10.818896   0.950722 H        1 UNL1     0.0233
     93 H         -2.091555   10.53722   -0.483984 H        1 UNL1     0.0233
     94 H         -3.134861   9.705556   -2.532343 H        1 UNL1     0.0233
     95 H         -4.702289   8.883366   -2.4936 H        1 UNL1     0.0233
     96 H         -4.63165   10.654622   -2.640747 H        1 UNL1     0.0233
     97 H         5.751637   6.69774   -6.936973 H        1 UNL1     0.0280
     98 H         5.184701   5.392574   -7.943112 H        1 UNL1     0.0280
     99 H         4.997924   7.083777   -8.495088 H        1 UNL1     0.0280
     100 H         3.937589   8.659651   -8.186246 H        1 UNL1     0.2922
     101 H         -2.273641   1.196443   -6.022395 H        1 UNL1     0.0236
     102 H         -3.926697   1.457768   -5.340354 H        1 UNL1     0.0236
     103 H         -2.825771   0.317622   -4.630758 H        1 UNL1     0.0236
     104 H         -3.844834   1.55877   -2.964083 H        1 UNL1     0.2098
     105 H         -0.485607   1.636898   -0.309097 H        1 UNL1     0.0234
     106 H         -1.581461   0.426806   0.416077 H        1 UNL1     0.0234
     107 H         0.0   0.0   0.0 H        1 UNL1     0.0234
     108 H         1.016637   -1.47394   -3.788425 H        1 UNL1     0.2098
     109 H         1.138309   1.930968   -1.359403 H        1 UNL1     0.0234
     110 H         1.5583   2.058884   0.378426 H        1 UNL1     0.0234
     111 H         2.628753   2.681394   -0.827997 H        1 UNL1     0.0234
     112 H         0.726016   1.104782   2.583177 H        1 UNL1     0.0342
     113 H         1.96123   1.105613   3.891797 H        1 UNL1     0.0342
     114 H         2.331542   1.805579   2.313543 H        1 UNL1     0.0342
     115 H         2.927211   -2.47831   -2.330314 H        1 UNL1     0.0234
     116 H         2.519424   -3.580157   -1.011061 H        1 UNL1     0.0234
     117 H         1.601261   -3.524887   -2.530129 H        1 UNL1     0.0234
     118 H         4.230742   3.244411   -3.033892 H        1 UNL1     0.0309
     119 H         5.096176   4.429528   -4.060821 H        1 UNL1     0.0309
     120 H         3.636144   4.855967   -3.195598 H        1 UNL1     0.0309
     121 H         3.443673   -1.686193   -0.812525 H        1 UNL1     0.0524
     122 H         2.320392   -2.536026   -1.88158 H        1 UNL1     0.0524
     123 H         4.074762   -2.777592   -2.07542 H        1 UNL1     0.0524
@<TRIPOS>BOND
     1     1     2    1
     2     1    42    1
     3     2     3    2
     4     3     4    1
     5     4     5    2
     6     5     7    1
     7     6    75    1
     8     6    76    1
     9     6    77    1
    10     7     9   am
    11     9    10    1
    12    10    11    2
    13    10    43    1
    14    11    14    1
    15    11    15    1
    16    12    13   ar
    17    12    27   ar
    18    12    43    1
    19    13    14    1
    20    13    30   ar
    21    14    17    2
    22    15    16    1
    23    16    17    1
    24    16    18    1
    25    16    22    1
    26    18    19    1
    27    19    20    1
    28    20    21    1
    29    21    22    1
    30    23    24    1
    31    23    88    1
    32    23    89    1
    33    24    25    1
    34    24    26    1
    35    24    90    1
    36    25    91    1
    37    25    92    1
    38    25    93    1
    39    26    94    1
    40    26    95    1
    41    26    96    1
    42    27    28   ar
    43    28    29   ar
    44    29    30   ar
    45    29    31    1
    46    30    33    1
    47    31    32    1
    48    32    33    1
    49    32    35    1
    50    34    97    1
    51    34    98    1
    52    34    99    1
    53    35    61    1
    54    36    37    1
    55    36    60    1
    56    37    38    1
    57    38    39    1
    58    39    40    1
    59    40    41    1
    60    41    42    1
    61    45   100    1
    62    47   101    1
    63    47   102    1
    64    47   103    1
    65    48   104    1
    66    49   105    1
    67    49   106    1
    68    49   107    1
    69    50   108    1
    70    51    59    1
    71    52   109    1
    72    52   110    1
    73    52   111    1
    74    53    54    1
    75    54    55    2
    76    54    56    1
    77    56   112    1
    78    56   113    1
    79    56   114    1
    80    57   115    1
    81    57   116    1
    82    57   117    1
    83    58   118    1
    84    58   119    1
    85    58   120    1
    86    59   121    1
    87    59   122    1
    88    59   123    1
    89    60    61    2
    90     1    47    1
    91     1    62    1
    92     2    63    1
    93     3    64    1
    94     4    65    1
    95     5     6    1
    96     7     8    2
    97     9    78    1
    98    15    79    1
    99    18    80    1
   100    18    81    1
   101    19    82    1
   102    19    83    1
   103    20    23    1
   104    21    84    1
   105    21    85    1
   106    22    86    1
   107    22    87    1
   108    27    45    1
   109    28    34    1
   110    32    58    1
   111    33    46    2
   112    36    51    1
   113    36    66    1
   114    37    52    1
   115    37    67    1
   116    38    53    1
   117    38    68    1
   118    42    48    1
   119    42    72    1
   120    43    44    2
   121    60    73    1
   122    61    74    1
   123    39    69    1
   124    39    57    1
   125    40    70    1
   126    40    50    1
   127    41    71    1
   128    41    49    1
