@<TRIPOS>MOLECULE
*****
 123 128 0 0 0
SMALL
GASTEIGER

@<TRIPOS>ATOM
     1 C         -3.420092   1.597787   -1.666843 C.3        1 UNL1     0.0009
     2 C         -4.980607   2.099352   -0.800667 C.2        1 UNL1     -0.0787
     3 C         -6.326076   1.795915   -0.360568 C.2        1 UNL1     -0.0649
     4 C         -7.339535   2.738737   0.614288 C.2        1 UNL1     -0.0542
     5 C         -8.47439   2.726963   1.462252 C.2        1 UNL1     0.0115
     6 C         -9.667587   1.861522   1.952777 C.3        1 UNL1     -0.0348
     7 C         -8.705351   3.956531   2.468139 C.2        1 UNL1     0.2441
     8 O         -9.514692   4.848501   2.253937 O.2        1 UNL1     -0.2702
     9 N         -8.107293   3.804522   3.731219 N.am        1 UNL1     -0.2772
     10 C         -6.814934   4.276436   3.710536 C.2        1 UNL1     0.1049
     11 C         -5.89882   3.444467   3.24925 C.2        1 UNL1     0.0801
     12 C         -5.432227   6.243123   3.01945 C.ar        1 UNL1     0.0753
     13 C         -4.577043   5.308485   2.353326 C.ar        1 UNL1     0.0305
     14 C         -4.711167   3.867974   2.558237 C.2        1 UNL1     0.0924
     15 N         -5.980591   2.128869   2.986492 N.pl3        1 UNL1     -0.3170
     16 C         -4.657524   1.661205   2.668625 C.3        1 UNL1     0.1275
     17 N         -3.953391   2.872319   2.107268 N.2        1 UNL1     -0.2557
     18 C         -3.962028   1.340773   3.988212 C.3        1 UNL1     0.0016
     19 C         -4.81307   0.342319   4.756591 C.3        1 UNL1     0.0026
     20 N         -4.975196   -0.856188   3.945219 N.3        1 UNL1     -0.3018
     21 C         -5.580295   -0.639105   2.629507 C.3        1 UNL1     0.0026
     22 C         -4.706751   0.363329   1.873238 C.3        1 UNL1     0.0016
     23 C         -5.510124   -1.975971   4.69394 C.3        1 UNL1     0.0012
     24 C         -4.467832   -2.503289   5.692599 C.3        1 UNL1     -0.0339
     25 C         -4.578853   -4.026584   5.86953 C.3        1 UNL1     -0.0615
     26 C         -3.072798   -2.091508   5.255454 C.3        1 UNL1     -0.0615
     27 C         -5.221783   7.615984   2.914173 C.ar        1 UNL1     0.1347
     28 C         -4.169668   8.169663   2.206681 C.ar        1 UNL1     0.0342
     29 C         -3.369724   7.232337   1.519169 C.ar        1 UNL1     0.1435
     30 C         -3.590199   5.856056   1.58598 C.ar        1 UNL1     0.0774
     31 O         -2.24193   7.605662   0.875961 O.3        1 UNL1     -0.4436
     32 C         -1.488292   6.392388   0.7315 C.3        1 UNL1     0.3143
     33 C         -2.51223   5.278178   0.810864 C.2        1 UNL1     0.2504
     34 C         -3.734876   9.607977   2.254729 C.3        1 UNL1     -0.0327
     35 O         -0.957062   6.376792   -0.599216 O.2        1 UNL1     -0.4528
     36 C         2.299097   4.43651   -0.397164 C.3        1 UNL1     0.0854
     37 C         2.552392   2.965538   0.112353 C.3        1 UNL1     0.0236
     38 C         3.296064   2.005989   -0.935484 C.3        1 UNL1     0.1131
     39 C         2.751849   1.888946   -2.41616 C.3        1 UNL1     0.0200
     40 C         1.11495   1.751754   -2.706292 C.3        1 UNL1     0.0661
     41 C         0.060059   0.659018   -1.950817 C.3        1 UNL1     0.0091
     42 C         -1.71614   0.822685   -1.522177 C.3        1 UNL1     0.0661
     43 C         -6.496969   5.699741   3.898836 C.2        1 UNL1     0.2131
     44 O         -7.017431   6.335663   4.797424 O.2        1 UNL1     -0.2851
     45 O         -6.126958   8.458478   3.55628 O.3        1 UNL1     -0.5056
     46 O         -2.459772   4.17055   0.324795 O.2        1 UNL1     -0.2836
     47 C         -3.625946   1.621007   -3.20537 C.3        1 UNL1     -0.0566
     48 O         -2.089453   -0.500448   -2.078119 O.3        1 UNL1     -0.3909
     49 C         0.752675   0.067639   -0.74332 C.3        1 UNL1     -0.0577
     50 O         0.511851   3.027405   -2.788196 O.3        1 UNL1     -0.3910
     51 O         2.59356   4.677559   -1.754595 O.3        1 UNL1     -0.3753
     52 C         1.388205   2.456992   1.023943 C.3        1 UNL1     -0.0564
     53 O         3.834276   0.747427   -0.320118 O.3        1 UNL1     -0.4608
     54 C         4.168075   -0.392294   -1.003891 C.2        1 UNL1     0.3042
     55 O         3.517619   -1.433728   -1.082375 O.2        1 UNL1     -0.2512
     56 C         5.455921   -0.279197   -1.768988 C.3        1 UNL1     0.0332
     57 C         3.585492   2.912937   -3.318744 C.3        1 UNL1     -0.0567
     58 C         -0.559345   6.305016   1.96477 C.3        1 UNL1     0.0210
     59 C         1.629997   5.471674   -2.445098 C.3        1 UNL1     0.0372
     60 C         0.925829   4.957562   -0.156748 C.2        1 UNL1     -0.0208
     61 C         0.102746   5.629438   -0.962888 C.2        1 UNL1     0.0882
     62 H         -2.981035   2.565341   -1.395221 H        1 UNL1     0.0365
     63 H         -4.750529   3.137345   -0.551461 H        1 UNL1     0.0576
     64 H         -6.763444   0.804512   -0.498179 H        1 UNL1     0.0615
     65 H         -6.855971   3.71935   0.621203 H        1 UNL1     0.0622
     66 H         2.968675   5.059061   0.212869 H        1 UNL1     0.0645
     67 H         3.325904   3.081127   0.891376 H        1 UNL1     0.0362
     68 H         4.25765   2.535041   -1.01902 H        1 UNL1     0.0741
     69 H         3.148186   0.986576   -2.862314 H        1 UNL1     0.0359
     70 H         1.136359   1.388295   -3.751519 H        1 UNL1     0.0600
     71 H         0.111805   -0.185357   -2.665877 H        1 UNL1     0.0348
     72 H         -1.517836   1.585124   -2.289431 H        1 UNL1     0.0602
     73 H         0.678754   4.83114   0.868054 H        1 UNL1     0.0628
     74 H         0.25475   5.752486   -2.035731 H        1 UNL1     0.1022
     75 H         -10.183712   1.37922   1.087886 H        1 UNL1     0.0279
     76 H         -9.422315   1.010112   2.583659 H        1 UNL1     0.0279
     77 H         -10.481421   2.463774   2.382508 H        1 UNL1     0.0279
     78 H         -8.068938   2.816984   3.974888 H        1 UNL1     0.1553
     79 H         -6.6941   1.529755   3.359187 H        1 UNL1     0.1484
     80 H         -2.963941   0.937938   3.777708 H        1 UNL1     0.0317
     81 H         -3.814608   2.248392   4.583313 H        1 UNL1     0.0317
     82 H         -5.788866   0.767535   5.033948 H        1 UNL1     0.0428
     83 H         -4.299715   0.129166   5.694718 H        1 UNL1     0.0428
     84 H         -5.617519   -1.540384   2.00973 H        1 UNL1     0.0428
     85 H         -6.63066   -0.326532   2.709181 H        1 UNL1     0.0428
     86 H         -5.101719   0.39608   0.874781 H        1 UNL1     0.0317
     87 H         -3.699316   -0.047605   1.734294 H        1 UNL1     0.0317
     88 H         -6.385556   -1.62438   5.255452 H        1 UNL1     0.0429
     89 H         -5.856557   -2.774049   4.024739 H        1 UNL1     0.0429
     90 H         -4.629703   -2.025944   6.66633 H        1 UNL1     0.0308
     91 H         -4.665762   -4.533846   4.904007 H        1 UNL1     0.0233
     92 H         -3.709568   -4.417855   6.403251 H        1 UNL1     0.0233
     93 H         -5.456226   -4.315497   6.460784 H        1 UNL1     0.0233
     94 H         -2.325313   -2.755113   5.703482 H        1 UNL1     0.0233
     95 H         -2.983857   -2.168905   4.168227 H        1 UNL1     0.0233
     96 H         -2.847396   -1.064409   5.555836 H        1 UNL1     0.0233
     97 H         -2.812312   9.773293   1.706298 H        1 UNL1     0.0280
     98 H         -4.476939   10.279899   1.804042 H        1 UNL1     0.0280
     99 H         -3.572845   9.90973   3.302481 H        1 UNL1     0.0280
     100 H         -5.730843   9.127035   4.087077 H        1 UNL1     0.2922
     101 H         -3.140511   2.50042   -3.628031 H        1 UNL1     0.0236
     102 H         -4.672816   1.550989   -3.498871 H        1 UNL1     0.0236
     103 H         -3.137198   0.765943   -3.701539 H        1 UNL1     0.0236
     104 H         -2.313736   -0.371779   -3.020516 H        1 UNL1     0.2098
     105 H         1.155714   -0.929701   -0.900428 H        1 UNL1     0.0234
     106 H         1.505265   0.711987   -0.28906 H        1 UNL1     0.0234
     107 H         0.0   0.0   0.0 H        1 UNL1     0.0234
     108 H         0.671555   3.47898   -1.937113 H        1 UNL1     0.2098
     109 H         1.55021   2.704388   2.082367 H        1 UNL1     0.0234
     110 H         0.404396   2.821196   0.708953 H        1 UNL1     0.0234
     111 H         1.292138   1.363719   0.985571 H        1 UNL1     0.0234
     112 H         5.65243   -1.211678   -2.30677 H        1 UNL1     0.0342
     113 H         5.454919   0.571291   -2.449071 H        1 UNL1     0.0342
     114 H         6.27114   -0.127971   -1.048076 H        1 UNL1     0.0342
     115 H         4.668822   2.77021   -3.203797 H        1 UNL1     0.0234
     116 H         3.357585   2.852253   -4.384777 H        1 UNL1     0.0234
     117 H         3.474892   3.965571   -3.006223 H        1 UNL1     0.0234
     118 H         0.33884   5.694841   1.764877 H        1 UNL1     0.0309
     119 H         -0.249896   7.285694   2.339888 H        1 UNL1     0.0309
     120 H         -1.030317   5.791756   2.810262 H        1 UNL1     0.0309
     121 H         1.689505   5.216559   -3.502799 H        1 UNL1     0.0524
     122 H         0.599834   5.263949   -2.110956 H        1 UNL1     0.0524
     123 H         1.840985   6.527626   -2.301764 H        1 UNL1     0.0524
@<TRIPOS>BOND
     1     1     2    1
     2     1    42    1
     3     2     3    2
     4     3     4    1
     5     4     5    2
     6     5     7    1
     7     6    75    1
     8     6    76    1
     9     6    77    1
    10     7     9   am
    11     9    10    1
    12    10    11    2
    13    10    43    1
    14    11    14    1
    15    11    15    1
    16    12    13   ar
    17    12    27   ar
    18    12    43    1
    19    13    14    1
    20    13    30   ar
    21    14    17    2
    22    15    16    1
    23    16    17    1
    24    16    18    1
    25    16    22    1
    26    18    19    1
    27    19    20    1
    28    20    21    1
    29    21    22    1
    30    23    24    1
    31    23    88    1
    32    23    89    1
    33    24    25    1
    34    24    26    1
    35    24    90    1
    36    25    91    1
    37    25    92    1
    38    25    93    1
    39    26    94    1
    40    26    95    1
    41    26    96    1
    42    27    28   ar
    43    28    29   ar
    44    29    30   ar
    45    29    31    1
    46    30    33    1
    47    31    32    1
    48    32    33    1
    49    32    35    1
    50    34    97    1
    51    34    98    1
    52    34    99    1
    53    35    61    1
    54    36    37    1
    55    36    60    1
    56    37    38    1
    57    38    39    1
    58    39    40    1
    59    40    41    1
    60    41    42    1
    61    45   100    1
    62    47   101    1
    63    47   102    1
    64    47   103    1
    65    48   104    1
    66    49   105    1
    67    49   106    1
    68    49   107    1
    69    50   108    1
    70    51    59    1
    71    52   109    1
    72    52   110    1
    73    52   111    1
    74    53    54    1
    75    54    55    2
    76    54    56    1
    77    56   112    1
    78    56   113    1
    79    56   114    1
    80    57   115    1
    81    57   116    1
    82    57   117    1
    83    58   118    1
    84    58   119    1
    85    58   120    1
    86    59   121    1
    87    59   122    1
    88    59   123    1
    89    60    61    2
    90     1    47    1
    91     1    62    1
    92     2    63    1
    93     3    64    1
    94     4    65    1
    95     5     6    1
    96     7     8    2
    97     9    78    1
    98    15    79    1
    99    18    80    1
   100    18    81    1
   101    19    82    1
   102    19    83    1
   103    20    23    1
   104    21    84    1
   105    21    85    1
   106    22    86    1
   107    22    87    1
   108    27    45    1
   109    28    34    1
   110    32    58    1
   111    33    46    2
   112    36    51    1
   113    36    66    1
   114    37    52    1
   115    37    67    1
   116    38    53    1
   117    38    68    1
   118    42    48    1
   119    42    72    1
   120    43    44    2
   121    60    73    1
   122    61    74    1
   123    39    69    1
   124    39    57    1
   125    40    70    1
   126    40    50    1
   127    41    71    1
   128    41    49    1
