@<TRIPOS>MOLECULE
*****
 123 128 0 0 0
SMALL
GASTEIGER

@<TRIPOS>ATOM
     1 C         3.793617   -0.033496   1.876217 C.3        1 UNL1     0.0009
     2 C         4.222857   0.588649   3.569063 C.2        1 UNL1     -0.0787
     3 C         4.826826   1.58893   4.423876 C.2        1 UNL1     -0.0649
     4 C         4.796361   1.668436   6.114766 C.2        1 UNL1     -0.0542
     5 C         4.954773   2.514015   7.240368 C.2        1 UNL1     0.0115
     6 C         5.425612   3.921905   7.698055 C.3        1 UNL1     -0.0348
     7 C         4.36227   2.042397   8.655821 C.2        1 UNL1     0.2441
     8 O         5.059814   1.58175   9.548996 O.2        1 UNL1     -0.2702
     9 N         3.034232   2.434305   8.898461 N.am        1 UNL1     -0.2772
     10 C         2.158453   1.495538   8.403439 C.2        1 UNL1     0.1049
     11 C         1.879527   1.581823   7.115426 C.2        1 UNL1     0.0801
     12 C         1.68884   -0.961339   8.379924 C.ar        1 UNL1     0.0753
     13 C         1.602388   -0.851681   6.955456 C.ar        1 UNL1     0.0305
     14 C         1.564817   0.448105   6.288976 C.2        1 UNL1     0.0924
     15 N         2.145383   2.564627   6.237961 N.pl3        1 UNL1     -0.3170
     16 C         1.478359   2.244269   5.003982 C.3        1 UNL1     0.1275
     17 N         1.388991   0.737705   5.002841 N.2        1 UNL1     -0.2557
     18 C         0.044795   2.753442   5.119474 C.3        1 UNL1     0.0016
     19 C         0.080779   4.23777   5.446683 C.3        1 UNL1     0.0026
     20 N         0.799992   4.932829   4.388073 N.3        1 UNL1     -0.3018
     21 C         2.170317   4.469768   4.1597 C.3        1 UNL1     0.0026
     22 C         2.110051   2.97768   3.828133 C.3        1 UNL1     0.0016
     23 C         0.6357   6.371707   4.445357 C.3        1 UNL1     0.0012
     24 C         -0.52085   6.744738   5.386098 C.3        1 UNL1     -0.0339
     25 C         -0.038409   7.630297   6.546741 C.3        1 UNL1     -0.0615
     26 C         -1.636695   7.411573   4.600603 C.3        1 UNL1     -0.0615
     27 C         1.602485   -2.197913   9.015177 C.ar        1 UNL1     0.1347
     28 C         1.390718   -3.385287   8.337424 C.ar        1 UNL1     0.0342
     29 C         1.357695   -3.258803   6.932406 C.ar        1 UNL1     0.1435
     30 C         1.479007   -2.031186   6.280133 C.ar        1 UNL1     0.0774
     31 O         1.049786   -4.306818   6.137507 O.3        1 UNL1     -0.4436
     32 C         0.656341   -3.713256   4.89101 C.3        1 UNL1     0.3143
     33 C         1.314615   -2.348452   4.876893 C.2        1 UNL1     0.2504
     34 C         1.038151   -4.706403   8.962282 C.3        1 UNL1     -0.0327
     35 O         1.263319   -4.48005   3.843701 O.2        1 UNL1     -0.4528
     36 C         -1.084984   -4.225291   0.872395 C.3        1 UNL1     0.0854
     37 C         -1.609313   -2.939655   0.124237 C.3        1 UNL1     0.0236
     38 C         -1.340803   -2.921019   -1.45668 C.3        1 UNL1     0.1131
     39 C         0.112794   -3.210095   -2.009638 C.3        1 UNL1     0.0200
     40 C         1.446283   -2.522517   -1.280611 C.3        1 UNL1     0.0661
     41 C         1.632472   -0.880884   -0.895923 C.3        1 UNL1     0.0091
     42 C         2.533015   -0.077052   0.485482 C.3        1 UNL1     0.0661
     43 C         1.783771   0.294557   9.164762 C.2        1 UNL1     0.2131
     44 O         1.475859   0.378793   10.33985 O.2        1 UNL1     -0.2851
     45 O         1.741939   -2.222197   10.401323 O.3        1 UNL1     -0.5056
     46 O         1.648549   -1.682756   3.92233 O.2        1 UNL1     -0.2836
     47 C         5.05592   -0.603566   1.175081 C.3        1 UNL1     -0.0566
     48 O         3.212227   0.914301   -0.383429 O.3        1 UNL1     -0.3909
     49 C         0.286379   -0.199342   -1.000934 C.3        1 UNL1     -0.0577
     50 O         1.900902   -3.324425   -0.209169 O.3        1 UNL1     -0.3910
     51 O         -0.300094   -5.10846   0.103374 O.3        1 UNL1     -0.3753
     52 C         -1.470302   -1.655973   1.006158 C.3        1 UNL1     -0.0564
     53 O         -2.140219   -1.883554   -2.189432 O.3        1 UNL1     -0.4608
     54 C         -3.221537   -1.209946   -1.684522 C.2        1 UNL1     0.3042
     55 O         -4.408392   -1.397243   -1.949349 O.2        1 UNL1     -0.2512
     56 C         -2.859647   -0.176288   -0.656271 C.3        1 UNL1     0.0332
     57 C         0.186212   -4.763278   -2.384344 C.3        1 UNL1     -0.0567
     58 C         -0.877271   -3.52674   4.960135 C.3        1 UNL1     0.0210
     59 C         -0.943506   -6.333278   -0.24549 C.3        1 UNL1     0.0372
     60 C         -0.327883   -3.958606   2.125726 C.2        1 UNL1     -0.0208
     61 C         0.813722   -4.482465   2.574117 C.2        1 UNL1     0.0882
     62 H         3.281675   -0.885285   2.339988 H        1 UNL1     0.0365
     63 H         3.86927   -0.239955   4.186203 H        1 UNL1     0.0576
     64 H         5.240234   2.514836   4.017798 H        1 UNL1     0.0615
     65 H         4.446786   0.677208   6.416011 H        1 UNL1     0.0622
     66 H         -1.996597   -4.757553   1.178509 H        1 UNL1     0.0645
     67 H         -2.708196   -3.038669   0.159063 H        1 UNL1     0.0362
     68 H         -1.945222   -3.790789   -1.756181 H        1 UNL1     0.0741
     69 H         0.17947   -2.839354   -3.023794 H        1 UNL1     0.0359
     70 H         2.198793   -2.673836   -2.078039 H        1 UNL1     0.0600
     71 H         2.13019   -0.521546   -1.817938 H        1 UNL1     0.0348
     72 H         2.946129   -1.092982   0.404617 H        1 UNL1     0.0602
     73 H         -0.904268   -3.325935   2.754023 H        1 UNL1     0.0628
     74 H         1.490233   -5.091849   1.973933 H        1 UNL1     0.1022
     75 H         6.416093   4.170171   7.246009 H        1 UNL1     0.0279
     76 H         4.809654   4.763555   7.389363 H        1 UNL1     0.0279
     77 H         5.660759   3.963487   8.771683 H        1 UNL1     0.0279
     78 H         2.844077   3.312687   8.420587 H        1 UNL1     0.1553
     79 H         2.370201   3.505057   6.506257 H        1 UNL1     0.1484
     80 H         -0.479047   2.564149   4.174739 H        1 UNL1     0.0317
     81 H         -0.502617   2.208537   5.896049 H        1 UNL1     0.0317
     82 H         0.540313   4.427349   6.427907 H        1 UNL1     0.0428
     83 H         -0.95152   4.57992   5.526319 H        1 UNL1     0.0428
     84 H         2.66023   4.952346   3.308281 H        1 UNL1     0.0428
     85 H         2.826577   4.699524   5.010495 H        1 UNL1     0.0428
     86 H         3.107844   2.704949   3.538282 H        1 UNL1     0.0317
     87 H         1.52775   2.820638   2.911967 H        1 UNL1     0.0317
     88 H         1.562787   6.805789   4.842065 H        1 UNL1     0.0429
     89 H         0.484525   6.79596   3.444393 H        1 UNL1     0.0429
     90 H         -0.954532   5.828119   5.803162 H        1 UNL1     0.0308
     91 H         0.814362   8.247405   6.248311 H        1 UNL1     0.0233
     92 H         -0.844314   8.278432   6.898946 H        1 UNL1     0.0233
     93 H         0.282775   7.042355   7.415073 H        1 UNL1     0.0233
     94 H         -1.770259   8.445239   4.937546 H        1 UNL1     0.0233
     95 H         -1.383272   7.433781   3.537003 H        1 UNL1     0.0233
     96 H         -2.585085   6.881788   4.726516 H        1 UNL1     0.0233
     97 H         1.782668   -5.468359   8.75169 H        1 UNL1     0.0280
     98 H         0.974389   -4.642802   10.056423 H        1 UNL1     0.0280
     99 H         0.068217   -5.053167   8.569754 H        1 UNL1     0.0280
     100 H         1.0743   -2.707347   10.853551 H        1 UNL1     0.2922
     101 H         5.019687   -1.692742   1.181362 H        1 UNL1     0.0236
     102 H         5.987207   -0.222917   1.593164 H        1 UNL1     0.0236
     103 H         5.095172   -0.331013   0.107201 H        1 UNL1     0.0236
     104 H         2.879269   1.799448   -0.137208 H        1 UNL1     0.2098
     105 H         0.302359   0.746256   -1.537033 H        1 UNL1     0.0234
     106 H         -0.516825   -0.833082   -1.376651 H        1 UNL1     0.0234
     107 H         -0.0   0.0   0.0 H        1 UNL1     0.0234
     108 H         2.207425   -2.721126   0.494992 H        1 UNL1     0.2098
     109 H         -2.049927   -1.726154   1.937191 H        1 UNL1     0.0234
     110 H         -0.430081   -1.40513   1.240166 H        1 UNL1     0.0234
     111 H         -1.848581   -0.765313   0.48695 H        1 UNL1     0.0234
     112 H         -3.766051   0.307793   -0.280182 H        1 UNL1     0.0342
     113 H         -2.27446   -0.597684   0.15971 H        1 UNL1     0.0342
     114 H         -2.244941   0.592578   -1.144274 H        1 UNL1     0.0342
     115 H         -0.722824   -5.300204   -2.080119 H        1 UNL1     0.0234
     116 H         0.341412   -4.956581   -3.447639 H        1 UNL1     0.0234
     117 H         0.958335   -5.315568   -1.821544 H        1 UNL1     0.0234
     118 H         -1.337698   -3.50321   3.956911 H        1 UNL1     0.0309
     119 H         -1.376092   -4.290376   5.565312 H        1 UNL1     0.0309
     120 H         -1.164322   -2.561958   5.392457 H        1 UNL1     0.0309
     121 H         -0.647899   -7.081862   0.489082 H        1 UNL1     0.0524
     122 H         -2.0428   -6.252397   -0.213125 H        1 UNL1     0.0524
     123 H         -0.642131   -6.645804   -1.241279 H        1 UNL1     0.0524
@<TRIPOS>BOND
     1     1     2    1
     2     1    42    1
     3     2     3    2
     4     3     4    1
     5     4     5    2
     6     5     7    1
     7     6    75    1
     8     6    76    1
     9     6    77    1
    10     7     9   am
    11     9    10    1
    12    10    11    2
    13    10    43    1
    14    11    14    1
    15    11    15    1
    16    12    13   ar
    17    12    27   ar
    18    12    43    1
    19    13    14    1
    20    13    30   ar
    21    14    17    2
    22    15    16    1
    23    16    17    1
    24    16    18    1
    25    16    22    1
    26    18    19    1
    27    19    20    1
    28    20    21    1
    29    21    22    1
    30    23    24    1
    31    23    88    1
    32    23    89    1
    33    24    25    1
    34    24    26    1
    35    24    90    1
    36    25    91    1
    37    25    92    1
    38    25    93    1
    39    26    94    1
    40    26    95    1
    41    26    96    1
    42    27    28   ar
    43    28    29   ar
    44    29    30   ar
    45    29    31    1
    46    30    33    1
    47    31    32    1
    48    32    33    1
    49    32    35    1
    50    34    97    1
    51    34    98    1
    52    34    99    1
    53    35    61    1
    54    36    37    1
    55    36    60    1
    56    37    38    1
    57    38    39    1
    58    39    40    1
    59    40    41    1
    60    41    42    1
    61    45   100    1
    62    47   101    1
    63    47   102    1
    64    47   103    1
    65    48   104    1
    66    49   105    1
    67    49   106    1
    68    49   107    1
    69    50   108    1
    70    51    59    1
    71    52   109    1
    72    52   110    1
    73    52   111    1
    74    53    54    1
    75    54    55    2
    76    54    56    1
    77    56   112    1
    78    56   113    1
    79    56   114    1
    80    57   115    1
    81    57   116    1
    82    57   117    1
    83    58   118    1
    84    58   119    1
    85    58   120    1
    86    59   121    1
    87    59   122    1
    88    59   123    1
    89    60    61    2
    90     1    47    1
    91     1    62    1
    92     2    63    1
    93     3    64    1
    94     4    65    1
    95     5     6    1
    96     7     8    2
    97     9    78    1
    98    15    79    1
    99    18    80    1
   100    18    81    1
   101    19    82    1
   102    19    83    1
   103    20    23    1
   104    21    84    1
   105    21    85    1
   106    22    86    1
   107    22    87    1
   108    27    45    1
   109    28    34    1
   110    32    58    1
   111    33    46    2
   112    36    51    1
   113    36    66    1
   114    37    52    1
   115    37    67    1
   116    38    53    1
   117    38    68    1
   118    42    48    1
   119    42    72    1
   120    43    44    2
   121    60    73    1
   122    61    74    1
   123    39    69    1
   124    39    57    1
   125    40    70    1
   126    40    50    1
   127    41    71    1
   128    41    49    1
