@<TRIPOS>MOLECULE
*****
 123 128 0 0 0
SMALL
GASTEIGER

@<TRIPOS>ATOM
     1 C         1.131209   -1.062926   -3.944814 C.3        1 UNL1     0.0009
     2 C         0.128994   -1.991928   -5.197634 C.2        1 UNL1     -0.0787
     3 C         -0.147774   -3.20768   -5.933429 C.2        1 UNL1     -0.0649
     4 C         -1.431964   -3.512829   -6.993664 C.2        1 UNL1     -0.0542
     5 C         -2.200618   -4.520629   -7.626584 C.2        1 UNL1     0.0115
     6 C         -2.286648   -6.046506   -7.905192 C.3        1 UNL1     -0.0348
     7 C         -3.630606   -4.133682   -8.244965 C.2        1 UNL1     0.2441
     8 O         -3.813559   -3.962848   -9.442408 O.2        1 UNL1     -0.2702
     9 N         -4.711021   -4.259947   -7.35451 N.am        1 UNL1     -0.2772
     10 C         -4.885832   -3.095042   -6.643342 C.2        1 UNL1     0.1049
     11 C         -4.114635   -2.939415   -5.58256 C.2        1 UNL1     0.0801
     12 C         -5.079479   -0.615823   -6.914095 C.ar        1 UNL1     0.0753
     13 C         -4.079483   -0.505319   -5.896056 C.ar        1 UNL1     0.0305
     14 C         -3.661112   -1.660975   -5.105817 C.2        1 UNL1     0.0924
     15 N         -3.324077   -3.824781   -4.951945 N.pl3        1 UNL1     -0.3170
     16 C         -2.834568   -3.199962   -3.751847 C.3        1 UNL1     0.1275
     17 N         -2.83111   -1.724348   -4.068509 N.2        1 UNL1     -0.2557
     18 C         -3.89521   -3.399165   -2.673395 C.3        1 UNL1     0.0016
     19 C         -4.176363   -4.887071   -2.53673 C.3        1 UNL1     0.0026
     20 N         -2.93734   -5.566866   -2.184977 N.3        1 UNL1     -0.3018
     21 C         -1.836503   -5.382924   -3.132971 C.3        1 UNL1     0.0026
     22 C         -1.567933   -3.881678   -3.2514 C.3        1 UNL1     0.0016
     23 C         -3.148595   -6.930182   -1.740697 C.3        1 UNL1     0.0012
     24 C         -2.281372   -7.2359   -0.509349 C.3        1 UNL1     -0.0339
     25 C         -1.809017   -8.699082   -0.503436 C.3        1 UNL1     -0.0615
     26 C         -1.110812   -6.270338   -0.444066 C.3        1 UNL1     -0.0615
     27 C         -5.559604   0.509782   -7.579387 C.ar        1 UNL1     0.1347
     28 C         -5.146258   1.797241   -7.286739 C.ar        1 UNL1     0.0342
     29 C         -4.125916   1.877265   -6.315317 C.ar        1 UNL1     0.1435
     30 C         -3.60948   0.755146   -5.66619 C.ar        1 UNL1     0.0774
     31 O         -3.694922   3.067019   -5.842311 O.3        1 UNL1     -0.4436
     32 C         -3.051746   2.751246   -4.598331 C.3        1 UNL1     0.3143
     33 C         -2.659569   1.292151   -4.714318 C.2        1 UNL1     0.2504
     34 C         -5.792226   3.063385   -7.776336 C.3        1 UNL1     -0.0327
     35 O         -1.835593   3.507049   -4.543687 O.2        1 UNL1     -0.4528
     36 C         -1.192837   4.179679   -0.86367 C.3        1 UNL1     0.0854
     37 C         -1.036765   3.153961   0.324213 C.3        1 UNL1     0.0236
     38 C         0.319732   3.297667   1.167425 C.3        1 UNL1     0.1131
     39 C         1.710788   3.340578   0.4155 C.3        1 UNL1     0.0200
     40 C         2.025937   2.287307   -0.838988 C.3        1 UNL1     0.0661
     41 C         1.795363   0.606996   -0.807357 C.3        1 UNL1     0.0091
     42 C         1.331357   -0.555942   -2.148132 C.3        1 UNL1     0.0661
     43 C         -5.653201   -1.959207   -7.175673 C.2        1 UNL1     0.2131
     44 O         -6.737577   -2.137482   -7.700157 O.2        1 UNL1     -0.2851
     45 O         -6.499291   0.310656   -8.588731 O.3        1 UNL1     -0.5056
     46 O         -1.753186   0.709328   -4.162376 O.2        1 UNL1     -0.2836
     47 C         2.517071   -0.686602   -4.534515 C.3        1 UNL1     -0.0566
     48 O         2.390138   -1.539853   -1.81644 O.3        1 UNL1     -0.3909
     49 C         0.950202   0.252962   0.395912 C.3        1 UNL1     -0.0577
     50 O         1.562546   2.815591   -2.065327 O.3        1 UNL1     -0.3910
     51 O         -0.061029   4.970964   -1.147059 O.3        1 UNL1     -0.3753
     52 C         -1.654692   1.760735   -0.025124 C.3        1 UNL1     -0.0564
     53 O         0.291559   2.568975   2.479119 O.3        1 UNL1     -0.4608
     54 C         1.349838   1.905764   3.043146 C.2        1 UNL1     0.3042
     55 O         2.403434   1.579841   2.497666 O.2        1 UNL1     -0.2512
     56 C         1.169342   1.619906   4.506847 C.3        1 UNL1     0.0332
     57 C         2.10296   4.878056   0.214155 C.3        1 UNL1     -0.0567
     58 C         -4.131078   2.891917   -3.499794 C.3        1 UNL1     0.0210
     59 C         -0.178462   6.34197   -0.769676 C.3        1 UNL1     0.0372
     60 C         -1.634647   3.584636   -2.154363 C.2        1 UNL1     -0.0208
     61 C         -1.188008   3.782637   -3.395352 C.2        1 UNL1     0.0882
     62 H         0.479997   -0.193692   -4.096692 H        1 UNL1     0.0365
     63 H         -0.532185   -1.200538   -5.55682 H        1 UNL1     0.0576
     64 H         0.391831   -4.135329   -5.729955 H        1 UNL1     0.0615
     65 H         -1.848258   -2.52124   -7.190974 H        1 UNL1     0.0622
     66 H         -2.005517   4.848113   -0.54619 H        1 UNL1     0.0645
     67 H         -1.789596   3.481679   1.062052 H        1 UNL1     0.0362
     68 H         0.176809   4.310234   1.574616 H        1 UNL1     0.0741
     69 H         2.495979   3.10873   1.122699 H        1 UNL1     0.0359
     70 H         3.127243   2.382137   -0.895488 H        1 UNL1     0.0600
     71 H         2.799042   0.280465   -0.471257 H        1 UNL1     0.0348
     72 H         1.708281   0.348211   -2.647883 H        1 UNL1     0.0602
     73 H         -2.512529   3.010079   -1.991709 H        1 UNL1     0.0628
     74 H         -0.265443   4.3092   -3.642018 H        1 UNL1     0.1022
     75 H         -1.274475   -6.514091   -7.842713 H        1 UNL1     0.0279
     76 H         -2.861881   -6.637474   -7.196014 H        1 UNL1     0.0279
     77 H         -2.566778   -6.273966   -8.944177 H        1 UNL1     0.0279
     78 H         -4.517404   -5.001597   -6.684775 H        1 UNL1     0.1553
     79 H         -3.413298   -4.819492   -5.049534 H        1 UNL1     0.1484
     80 H         -3.531506   -2.972066   -1.731019 H        1 UNL1     0.0317
     81 H         -4.815868   -2.862358   -2.926135 H        1 UNL1     0.0317
     82 H         -4.610059   -5.305653   -3.456844 H        1 UNL1     0.0428
     83 H         -4.936484   -5.006342   -1.764046 H        1 UNL1     0.0428
     84 H         -0.895724   -5.836699   -2.806116 H        1 UNL1     0.0428
     85 H         -2.043755   -5.864625   -4.098543 H        1 UNL1     0.0428
     86 H         -0.676897   -3.792868   -3.844827 H        1 UNL1     0.0317
     87 H         -1.265743   -3.477121   -2.277691 H        1 UNL1     0.0317
     88 H         -4.204469   -7.038201   -1.460062 H        1 UNL1     0.0429
     89 H         -2.955626   -7.647383   -2.54888 H        1 UNL1     0.0429
     90 H         -2.869652   -7.055216   0.398115 H        1 UNL1     0.0308
     91 H         -1.428925   -8.998287   -1.484818 H        1 UNL1     0.0233
     92 H         -1.027501   -8.849689   0.245001 H        1 UNL1     0.0233
     93 H         -2.615427   -9.397232   -0.248242 H        1 UNL1     0.0233
     94 H         -0.303716   -6.695664   0.162176 H        1 UNL1     0.0233
     95 H         -0.718613   -6.090145   -1.44889 H        1 UNL1     0.0233
     96 H         -1.406507   -5.313942   -0.003795 H        1 UNL1     0.0233
     97 H         -6.125719   3.693713   -6.957373 H        1 UNL1     0.0280
     98 H         -5.101251   3.678823   -8.367136 H        1 UNL1     0.0280
     99 H         -6.666995   2.814444   -8.399155 H        1 UNL1     0.0280
     100 H         -6.25458   -0.333149   -9.230022 H        1 UNL1     0.2922
     101 H         2.387657   -0.232221   -5.516577 H        1 UNL1     0.0236
     102 H         3.213797   -1.523809   -4.559835 H        1 UNL1     0.0236
     103 H         3.0269   0.085211   -3.934038 H        1 UNL1     0.0236
     104 H         2.818065   -1.244928   -0.988873 H        1 UNL1     0.2098
     105 H         1.312137   -0.600671   0.963472 H        1 UNL1     0.0234
     106 H         0.73647   1.087423   1.063685 H        1 UNL1     0.0234
     107 H         -0.0   0.0   0.0 H        1 UNL1     0.0234
     108 H         1.802567   2.177976   -2.765045 H        1 UNL1     0.2098
     109 H         -2.731487   1.824179   -0.235364 H        1 UNL1     0.0234
     110 H         -1.147565   1.261567   -0.857828 H        1 UNL1     0.0234
     111 H         -1.555898   1.053506   0.80915 H        1 UNL1     0.0234
     112 H         1.288703   2.542094   5.083622 H        1 UNL1     0.0342
     113 H         0.21017   1.149059   4.716934 H        1 UNL1     0.0342
     114 H         1.958291   0.922309   4.820027 H        1 UNL1     0.0342
     115 H         3.188568   5.034468   0.278798 H        1 UNL1     0.0234
     116 H         1.766068   5.301641   -0.734068 H        1 UNL1     0.0234
     117 H         1.744487   5.533509   1.026448 H        1 UNL1     0.0234
     118 H         -3.9457   3.76162   -2.84538 H        1 UNL1     0.0309
     119 H         -5.147247   2.956208   -3.901626 H        1 UNL1     0.0309
     120 H         -4.133661   2.047084   -2.802401 H        1 UNL1     0.0309
     121 H         0.239519   6.44536   0.231303 H        1 UNL1     0.0524
     122 H         0.390463   7.009964   -1.437617 H        1 UNL1     0.0524
     123 H         -1.221721   6.644777   -0.773356 H        1 UNL1     0.0524
@<TRIPOS>BOND
     1     1     2    1
     2     1    42    1
     3     2     3    2
     4     3     4    1
     5     4     5    2
     6     5     7    1
     7     6    75    1
     8     6    76    1
     9     6    77    1
    10     7     9   am
    11     9    10    1
    12    10    11    2
    13    10    43    1
    14    11    14    1
    15    11    15    1
    16    12    13   ar
    17    12    27   ar
    18    12    43    1
    19    13    14    1
    20    13    30   ar
    21    14    17    2
    22    15    16    1
    23    16    17    1
    24    16    18    1
    25    16    22    1
    26    18    19    1
    27    19    20    1
    28    20    21    1
    29    21    22    1
    30    23    24    1
    31    23    88    1
    32    23    89    1
    33    24    25    1
    34    24    26    1
    35    24    90    1
    36    25    91    1
    37    25    92    1
    38    25    93    1
    39    26    94    1
    40    26    95    1
    41    26    96    1
    42    27    28   ar
    43    28    29   ar
    44    29    30   ar
    45    29    31    1
    46    30    33    1
    47    31    32    1
    48    32    33    1
    49    32    35    1
    50    34    97    1
    51    34    98    1
    52    34    99    1
    53    35    61    1
    54    36    37    1
    55    36    60    1
    56    37    38    1
    57    38    39    1
    58    39    40    1
    59    40    41    1
    60    41    42    1
    61    45   100    1
    62    47   101    1
    63    47   102    1
    64    47   103    1
    65    48   104    1
    66    49   105    1
    67    49   106    1
    68    49   107    1
    69    50   108    1
    70    51    59    1
    71    52   109    1
    72    52   110    1
    73    52   111    1
    74    53    54    1
    75    54    55    2
    76    54    56    1
    77    56   112    1
    78    56   113    1
    79    56   114    1
    80    57   115    1
    81    57   116    1
    82    57   117    1
    83    58   118    1
    84    58   119    1
    85    58   120    1
    86    59   121    1
    87    59   122    1
    88    59   123    1
    89    60    61    2
    90     1    47    1
    91     1    62    1
    92     2    63    1
    93     3    64    1
    94     4    65    1
    95     5     6    1
    96     7     8    2
    97     9    78    1
    98    15    79    1
    99    18    80    1
   100    18    81    1
   101    19    82    1
   102    19    83    1
   103    20    23    1
   104    21    84    1
   105    21    85    1
   106    22    86    1
   107    22    87    1
   108    27    45    1
   109    28    34    1
   110    32    58    1
   111    33    46    2
   112    36    51    1
   113    36    66    1
   114    37    52    1
   115    37    67    1
   116    38    53    1
   117    38    68    1
   118    42    48    1
   119    42    72    1
   120    43    44    2
   121    60    73    1
   122    61    74    1
   123    39    69    1
   124    39    57    1
   125    40    70    1
   126    40    50    1
   127    41    71    1
   128    41    49    1
