@<TRIPOS>MOLECULE
*****
 123 128 0 0 0
SMALL
GASTEIGER

@<TRIPOS>ATOM
     1 C         3.294004   1.953639   -3.625404 C.3        1 UNL1     0.0009
     2 C         4.092351   1.487937   -5.232513 C.2        1 UNL1     -0.0787
     3 C         5.278526   1.176712   -6.002042 C.2        1 UNL1     -0.0649
     4 C         5.368224   0.650968   -7.608872 C.2        1 UNL1     -0.0542
     5 C         6.176209   0.001768   -8.574677 C.2        1 UNL1     0.0115
     6 C         7.606164   -0.532859   -8.862292 C.3        1 UNL1     -0.0348
     7 C         5.483882   -0.585793   -9.898476 C.2        1 UNL1     0.2441
     8 O         5.538021   -0.023203   -10.983413 O.2        1 UNL1     -0.2702
     9 N         5.035694   -1.913677   -9.788925 N.am        1 UNL1     -0.2772
     10 C         3.750439   -1.947798   -9.298743 C.2        1 UNL1     0.1049
     11 C         3.625641   -1.866483   -7.986479 C.2        1 UNL1     0.0801
     12 C         1.479556   -0.947701   -9.615328 C.ar        1 UNL1     0.0753
     13 C         1.482315   -0.691002   -8.207241 C.ar        1 UNL1     0.0305
     14 C         2.500065   -1.261341   -7.327497 C.2        1 UNL1     0.0924
     15 N         4.556988   -1.965137   -7.022431 N.pl3        1 UNL1     -0.3170
     16 C         3.87717   -1.97814   -5.754388 C.3        1 UNL1     0.1275
     17 N         2.600573   -1.212233   -6.0022 N.2        1 UNL1     -0.2557
     18 C         3.459664   -3.41969   -5.479936 C.3        1 UNL1     0.0016
     19 C         4.695374   -4.303511   -5.538864 C.3        1 UNL1     0.0026
     20 N         5.652091   -3.836827   -4.544919 N.3        1 UNL1     -0.3018
     21 C         6.067417   -2.440059   -4.689535 C.3        1 UNL1     0.0026
     22 C         4.811159   -1.569856   -4.622789 C.3        1 UNL1     0.0016
     23 C         6.727471   -4.779928   -4.310904 C.3        1 UNL1     0.0012
     24 C         6.201029   -6.027708   -3.584501 C.3        1 UNL1     -0.0339
     25 C         7.25184   -6.602376   -2.620338 C.3        1 UNL1     -0.0615
     26 C         4.902176   -5.703493   -2.867113 C.3        1 UNL1     -0.0615
     27 C         0.440274   -0.501475   -10.428282 C.ar        1 UNL1     0.1347
     28 C         -0.66524   0.174176   -9.943118 C.ar        1 UNL1     0.0342
     29 C         -0.617218   0.458307   -8.561768 C.ar        1 UNL1     0.1435
     30 C         0.434697   0.049159   -7.741224 C.ar        1 UNL1     0.0774
     31 O         -1.668377   1.012709   -7.919343 O.3        1 UNL1     -0.4436
     32 C         -1.446448   0.711237   -6.533437 C.3        1 UNL1     0.3143
     33 C         0.045624   0.475672   -6.413265 C.2        1 UNL1     0.2504
     34 C         -1.92843   0.460695   -10.706242 C.3        1 UNL1     -0.0327
     35 O         -1.742978   1.897664   -5.786634 O.2        1 UNL1     -0.4528
     36 C         -2.977768   0.713138   -2.398378 C.3        1 UNL1     0.0854
     37 C         -2.256866   -0.210174   -1.342292 C.3        1 UNL1     0.0236
     38 C         -2.125473   0.418621   0.127095 C.3        1 UNL1     0.1131
     39 C         -1.528485   1.872218   0.308561 C.3        1 UNL1     0.0200
     40 C         -0.175104   2.342452   -0.545651 C.3        1 UNL1     0.0661
     41 C         1.277335   1.473959   -0.662917 C.3        1 UNL1     0.0091
     42 C         2.489762   1.362517   -2.035143 C.3        1 UNL1     0.0661
     43 C         2.575483   -1.782269   -10.167323 C.2        1 UNL1     0.2131
     44 O         2.494501   -2.389295   -11.219795 O.2        1 UNL1     -0.2851
     45 O         0.536784   -0.753475   -11.795257 O.3        1 UNL1     -0.5056
     46 O         0.756888   0.627388   -5.445308 O.2        1 UNL1     -0.2836
     47 C         3.547517   3.452761   -3.311799 C.3        1 UNL1     -0.0566
     48 O         3.668835   1.581992   -1.162942 O.3        1 UNL1     -0.3909
     49 C         1.045258   0.065267   -0.163697 C.3        1 UNL1     -0.0577
     50 O         -0.53521   2.855029   -1.81266 O.3        1 UNL1     -0.3910
     51 O         -3.258305   2.028773   -1.976674 O.3        1 UNL1     -0.3753
     52 C         -1.110244   -1.051759   -1.991862 C.3        1 UNL1     -0.0564
     53 O         -1.765992   -0.587576   1.180977 O.3        1 UNL1     -0.4608
     54 C         -0.9331   -0.361117   2.245372 C.2        1 UNL1     0.3042
     55 O         0.236955   -0.721354   2.368013 O.2        1 UNL1     -0.2512
     56 C         -1.555388   0.472335   3.329267 C.3        1 UNL1     0.0332
     57 C         -2.757695   2.893165   0.378448 C.3        1 UNL1     -0.0567
     58 C         -2.185613   -0.617447   -6.25101 C.3        1 UNL1     0.0210
     59 C         -4.637134   2.296608   -1.725758 C.3        1 UNL1     0.0372
     60 C         -2.288664   0.821546   -3.713119 C.2        1 UNL1     -0.0208
     61 C         -2.038732   1.888938   -4.472694 C.2        1 UNL1     0.0882
     62 H         2.315461   1.897977   -4.117408 H        1 UNL1     0.0365
     63 H         3.228694   1.502476   -5.900611 H        1 UNL1     0.0576
     64 H         6.261429   1.09812   -5.532112 H        1 UNL1     0.0615
     65 H         4.366723   0.844396   -8.002653 H        1 UNL1     0.0622
     66 H         -3.933181   0.208441   -2.599654 H        1 UNL1     0.0645
     67 H         -2.975982   -1.029151   -1.167054 H        1 UNL1     0.0362
     68 H         -3.191772   0.506774   0.385474 H        1 UNL1     0.0741
     69 H         -1.21401   1.993466   1.336575 H        1 UNL1     0.0359
     70 H         0.119654   3.234243   0.039915 H        1 UNL1     0.0600
     71 H         1.835727   1.915694   0.185627 H        1 UNL1     0.0348
     72 H         1.902372   2.273079   -2.222667 H        1 UNL1     0.0602
     73 H         -2.093954   -0.152983   -4.086789 H        1 UNL1     0.0628
     74 H         -2.155533   2.921708   -4.142568 H        1 UNL1     0.1022
     75 H         8.373226   0.228512   -8.581287 H        1 UNL1     0.0279
     76 H         7.921792   -1.404447   -8.293272 H        1 UNL1     0.0279
     77 H         7.806115   -0.655693   -9.93683 H        1 UNL1     0.0279
     78 H         5.626894   -2.42129   -9.134029 H        1 UNL1     0.1553
     79 H         5.459013   -2.38268   -7.160061 H        1 UNL1     0.1484
     80 H         2.977028   -3.47106   -4.496478 H        1 UNL1     0.0317
     81 H         2.717838   -3.758193   -6.211209 H        1 UNL1     0.0317
     82 H         5.141741   -4.312766   -6.544142 H        1 UNL1     0.0428
     83 H         4.374726   -5.327011   -5.342185 H        1 UNL1     0.0428
     84 H         6.723226   -2.091951   -3.885454 H        1 UNL1     0.0428
     85 H         6.657628   -2.281539   -5.602683 H        1 UNL1     0.0428
     86 H         5.162828   -0.555119   -4.597745 H        1 UNL1     0.0317
     87 H         4.321438   -1.692842   -3.649062 H        1 UNL1     0.0317
     88 H         7.130748   -5.086627   -5.284863 H        1 UNL1     0.0429
     89 H         7.551107   -4.315312   -3.753652 H        1 UNL1     0.0429
     90 H         5.950168   -6.795751   -4.32571 H        1 UNL1     0.0308
     91 H         7.711235   -5.813849   -2.016778 H        1 UNL1     0.0233
     92 H         6.802455   -7.345548   -1.957498 H        1 UNL1     0.0233
     93 H         8.065916   -7.114894   -3.147065 H        1 UNL1     0.0233
     94 H         4.726645   -6.42303   -2.060087 H        1 UNL1     0.0233
     95 H         4.959726   -4.705912   -2.422724 H        1 UNL1     0.0233
     96 H         4.049513   -5.736575   -3.551102 H        1 UNL1     0.0233
     97 H         -2.80217   0.033863   -10.222896 H        1 UNL1     0.0280
     98 H         -2.126691   1.537303   -10.789097 H        1 UNL1     0.0280
     99 H         -1.851757   0.03483   -11.720074 H        1 UNL1     0.0280
     100 H         0.183242   -1.582367   -12.06649 H        1 UNL1     0.2922
     101 H         2.651768   3.893549   -2.87477 H        1 UNL1     0.0236
     102 H         3.902231   4.016959   -4.173681 H        1 UNL1     0.0236
     103 H         4.328934   3.5892   -2.545663 H        1 UNL1     0.0236
     104 H         3.3546   1.585829   -0.237625 H        1 UNL1     0.2098
     105 H         1.320471   -0.712956   -0.871112 H        1 UNL1     0.0234
     106 H         1.472556   -0.14674   0.816301 H        1 UNL1     0.0234
     107 H         0.0   0.0   0.0 H        1 UNL1     0.0234
     108 H         -0.791881   2.095649   -2.37054 H        1 UNL1     0.2098
     109 H         -1.481045   -1.720806   -2.780908 H        1 UNL1     0.0234
     110 H         -0.295053   -0.435935   -2.386789 H        1 UNL1     0.0234
     111 H         -0.619592   -1.702993   -1.256265 H        1 UNL1     0.0234
     112 H         -0.967872   0.386468   4.248396 H        1 UNL1     0.0342
     113 H         -1.666105   1.514137   3.032225 H        1 UNL1     0.0342
     114 H         -2.559561   0.075817   3.533166 H        1 UNL1     0.0342
     115 H         -3.652957   2.425488   0.810852 H        1 UNL1     0.0234
     116 H         -2.550625   3.798684   0.952214 H        1 UNL1     0.0234
     117 H         -3.134045   3.197118   -0.613476 H        1 UNL1     0.0234
     118 H         -3.067428   -0.471651   -5.602818 H        1 UNL1     0.0309
     119 H         -2.493433   -1.139951   -7.162295 H        1 UNL1     0.0309
     120 H         -1.571996   -1.328084   -5.686585 H        1 UNL1     0.0309
     121 H         -4.796166   3.365464   -1.865799 H        1 UNL1     0.0524
     122 H         -5.300951   1.767219   -2.429415 H        1 UNL1     0.0524
     123 H         -4.897353   2.008701   -0.71112 H        1 UNL1     0.0524
@<TRIPOS>BOND
     1     1     2    1
     2     1    42    1
     3     2     3    2
     4     3     4    1
     5     4     5    2
     6     5     7    1
     7     6    75    1
     8     6    76    1
     9     6    77    1
    10     7     9   am
    11     9    10    1
    12    10    11    2
    13    10    43    1
    14    11    14    1
    15    11    15    1
    16    12    13   ar
    17    12    27   ar
    18    12    43    1
    19    13    14    1
    20    13    30   ar
    21    14    17    2
    22    15    16    1
    23    16    17    1
    24    16    18    1
    25    16    22    1
    26    18    19    1
    27    19    20    1
    28    20    21    1
    29    21    22    1
    30    23    24    1
    31    23    88    1
    32    23    89    1
    33    24    25    1
    34    24    26    1
    35    24    90    1
    36    25    91    1
    37    25    92    1
    38    25    93    1
    39    26    94    1
    40    26    95    1
    41    26    96    1
    42    27    28   ar
    43    28    29   ar
    44    29    30   ar
    45    29    31    1
    46    30    33    1
    47    31    32    1
    48    32    33    1
    49    32    35    1
    50    34    97    1
    51    34    98    1
    52    34    99    1
    53    35    61    1
    54    36    37    1
    55    36    60    1
    56    37    38    1
    57    38    39    1
    58    39    40    1
    59    40    41    1
    60    41    42    1
    61    45   100    1
    62    47   101    1
    63    47   102    1
    64    47   103    1
    65    48   104    1
    66    49   105    1
    67    49   106    1
    68    49   107    1
    69    50   108    1
    70    51    59    1
    71    52   109    1
    72    52   110    1
    73    52   111    1
    74    53    54    1
    75    54    55    2
    76    54    56    1
    77    56   112    1
    78    56   113    1
    79    56   114    1
    80    57   115    1
    81    57   116    1
    82    57   117    1
    83    58   118    1
    84    58   119    1
    85    58   120    1
    86    59   121    1
    87    59   122    1
    88    59   123    1
    89    60    61    2
    90     1    47    1
    91     1    62    1
    92     2    63    1
    93     3    64    1
    94     4    65    1
    95     5     6    1
    96     7     8    2
    97     9    78    1
    98    15    79    1
    99    18    80    1
   100    18    81    1
   101    19    82    1
   102    19    83    1
   103    20    23    1
   104    21    84    1
   105    21    85    1
   106    22    86    1
   107    22    87    1
   108    27    45    1
   109    28    34    1
   110    32    58    1
   111    33    46    2
   112    36    51    1
   113    36    66    1
   114    37    52    1
   115    37    67    1
   116    38    53    1
   117    38    68    1
   118    42    48    1
   119    42    72    1
   120    43    44    2
   121    60    73    1
   122    61    74    1
   123    39    69    1
   124    39    57    1
   125    40    70    1
   126    40    50    1
   127    41    71    1
   128    41    49    1
