@<TRIPOS>MOLECULE
*****
 123 128 0 0 0
SMALL
GASTEIGER

@<TRIPOS>ATOM
     1 C         0.159985   1.024678   -4.182172 C.3        1 UNL1     0.0009
     2 C         1.232871   0.285042   -5.500842 C.2        1 UNL1     -0.0787
     3 C         2.356972   0.384272   -6.407814 C.2        1 UNL1     -0.0649
     4 C         2.991476   -0.820247   -7.414241 C.2        1 UNL1     -0.0542
     5 C         4.126555   -1.237776   -8.152037 C.2        1 UNL1     0.0115
     6 C         5.520066   -0.791346   -8.673718 C.3        1 UNL1     -0.0348
     7 C         4.240082   -2.775435   -8.598921 C.2        1 UNL1     0.2441
     8 O         4.000344   -3.15733   -9.736114 O.2        1 UNL1     -0.2702
     9 N         4.882819   -3.612698   -7.670465 N.am        1 UNL1     -0.2772
     10 C         3.974773   -4.112466   -6.765476 C.2        1 UNL1     0.1049
     11 C         3.673329   -3.325653   -5.748481 C.2        1 UNL1     0.0801
     12 C         1.745461   -5.236011   -6.606883 C.ar        1 UNL1     0.0753
     13 C         1.392343   -4.227151   -5.654981 C.ar        1 UNL1     0.0305
     14 C         2.391093   -3.317605   -5.097956 C.2        1 UNL1     0.0924
     15 N         4.261976   -2.192531   -5.32889 N.pl3        1 UNL1     -0.3170
     16 C         3.656744   -1.820198   -4.077764 C.3        1 UNL1     0.1275
     17 N         2.264558   -2.399077   -4.144425 N.2        1 UNL1     -0.2557
     18 C         4.382743   -2.588805   -2.977823 C.3        1 UNL1     0.0016
     19 C         5.86931   -2.283931   -3.071405 C.3        1 UNL1     0.0026
     20 N         6.062636   -0.848147   -2.922484 N.3        1 UNL1     -0.3018
     21 C         5.351941   -0.020493   -3.899351 C.3        1 UNL1     0.0026
     22 C         3.860314   -0.339572   -3.784758 C.3        1 UNL1     0.0016
     23 C         7.447865   -0.485978   -2.697501 C.3        1 UNL1     0.0012
     24 C         8.203229   -1.640329   -2.020261 C.3        1 UNL1     -0.0339
     25 C         7.448189   -2.158452   -0.785142 C.3        1 UNL1     -0.0615
     26 C         8.463988   -2.751136   -3.022705 C.3        1 UNL1     -0.0615
     27 C         0.813828   -6.175713   -7.041782 C.ar        1 UNL1     0.1347
     28 C         -0.484878   -6.231143   -6.568136 C.ar        1 UNL1     0.0342
     29 C         -0.823855   -5.198194   -5.668539 C.ar        1 UNL1     0.1435
     30 C         0.088632   -4.228345   -5.25143 C.ar        1 UNL1     0.0774
     31 O         -2.016801   -5.178785   -5.03489 O.3        1 UNL1     -0.4436
     32 C         -1.814457   -4.313684   -3.907269 C.3        1 UNL1     0.3143
     33 C         -0.644091   -3.430687   -4.290377 C.2        1 UNL1     0.2504
     34 C         -1.459195   -7.353229   -6.795578 C.3        1 UNL1     -0.0327
     35 O         -2.964127   -3.463876   -3.810629 O.2        1 UNL1     -0.4528
     36 C         -3.354077   -2.656155   -0.122322 C.3        1 UNL1     0.0854
     37 C         -2.322997   -1.98608   0.8653 C.3        1 UNL1     0.0236
     38 C         -2.865214   -0.682884   1.626499 C.3        1 UNL1     0.1131
     39 C         -3.53272   0.488679   0.799368 C.3        1 UNL1     0.0200
     40 C         -2.850082   1.008447   -0.631116 C.3        1 UNL1     0.0661
     41 C         -1.220242   1.41743   -0.863423 C.3        1 UNL1     0.0091
     42 C         -0.150358   1.248663   -2.344054 C.3        1 UNL1     0.0661
     43 C         3.160648   -5.303909   -7.048352 C.2        1 UNL1     0.2131
     44 O         3.671264   -6.303577   -7.520234 O.2        1 UNL1     -0.2851
     45 O         1.226094   -7.095338   -8.003949 O.3        1 UNL1     -0.5056
     46 O         -0.386662   -2.311899   -3.905802 O.2        1 UNL1     -0.2836
     47 C         -0.789857   2.089325   -4.793981 C.3        1 UNL1     -0.0566
     48 O         0.387612   2.627589   -2.253131 O.3        1 UNL1     -0.3909
     49 C         -0.418972   0.919976   0.318947 C.3        1 UNL1     -0.0577
     50 O         -3.313378   0.233141   -1.718306 O.3        1 UNL1     -0.3910
     51 O         -4.547258   -1.939602   -0.346601 O.3        1 UNL1     -0.3753
     52 C         -0.856537   -2.087429   0.332221 C.3        1 UNL1     -0.0564
     53 O         -2.019625   -0.276177   2.797778 O.3        1 UNL1     -0.4608
     54 C         -2.195995   0.85485   3.551172 C.2        1 UNL1     0.3042
     55 O         -2.262295   0.932691   4.777297 O.2        1 UNL1     -0.2512
     56 C         -2.252795   2.116508   2.737718 C.3        1 UNL1     0.0332
     57 C         -5.115386   0.259762   0.830009 C.3        1 UNL1     -0.0567
     58 C         -1.38975   -5.221885   -2.729846 C.3        1 UNL1     0.0210
     59 C         -4.439175   -0.876215   -1.291795 C.3        1 UNL1     0.0372
     60 C         -2.805935   -3.006863   -1.460867 C.2        1 UNL1     -0.0208
     61 C         -3.316862   -2.824048   -2.679176 C.2        1 UNL1     0.0882
     62 H         -0.405868   0.086071   -4.142949 H        1 UNL1     0.0365
     63 H         0.715511   -0.660204   -5.677814 H        1 UNL1     0.0576
     64 H         3.025565   1.247986   -6.398396 H        1 UNL1     0.0615
     65 H         2.218009   -1.593054   -7.415355 H        1 UNL1     0.0622
     66 H         -3.61432   -3.610764   0.356261 H        1 UNL1     0.0645
     67 H         -2.240503   -2.70749   1.696758 H        1 UNL1     0.0362
     68 H         -3.684986   -1.135498   2.204977 H        1 UNL1     0.0741
     69 H         -3.530232   1.386329   1.403212 H        1 UNL1     0.0359
     70 H         -3.365227   1.981347   -0.745797 H        1 UNL1     0.0600
     71 H         -1.262192   2.50456   -0.65523 H        1 UNL1     0.0348
     72 H         -1.185872   1.200917   -2.711132 H        1 UNL1     0.0602
     73 H         -1.923641   -3.584244   -1.336622 H        1 UNL1     0.0628
     74 H         -4.183085   -2.198417   -2.897078 H        1 UNL1     0.1022
     75 H         5.545508   0.31453   -8.826769 H        1 UNL1     0.0279
     76 H         6.363168   -0.954922   -8.006266 H        1 UNL1     0.0279
     77 H         5.730467   -1.155745   -9.68991 H        1 UNL1     0.0279
     78 H         5.573231   -3.077549   -7.147949 H        1 UNL1     0.1553
     79 H         5.193833   -1.921479   -5.584048 H        1 UNL1     0.1484
     80 H         3.973537   -2.29214   -2.004526 H        1 UNL1     0.0317
     81 H         4.211203   -3.666226   -3.074726 H        1 UNL1     0.0317
     82 H         6.300339   -2.645424   -4.01663 H        1 UNL1     0.0428
     83 H         6.368085   -2.843419   -2.279416 H        1 UNL1     0.0428
     84 H         5.449298   1.054273   -3.717112 H        1 UNL1     0.0428
     85 H         5.748315   -0.155839   -4.91517 H        1 UNL1     0.0428
     86 H         3.362312   0.374282   -4.414358 H        1 UNL1     0.0317
     87 H         3.499271   -0.087369   -2.7802 H        1 UNL1     0.0317
     88 H         7.912106   -0.289044   -3.672689 H        1 UNL1     0.0429
     89 H         7.52817   0.438073   -2.110598 H        1 UNL1     0.0429
     90 H         9.190894   -1.285763   -1.702436 H        1 UNL1     0.0308
     91 H         6.630363   -1.486509   -0.508096 H        1 UNL1     0.0233
     92 H         7.045082   -3.157002   -0.969568 H        1 UNL1     0.0233
     93 H         8.097662   -2.248451   0.094017 H        1 UNL1     0.0233
     94 H         7.836853   -3.619956   -2.795354 H        1 UNL1     0.0233
     95 H         8.214741   -2.410173   -4.031458 H        1 UNL1     0.0233
     96 H         9.510948   -3.066639   -3.005354 H        1 UNL1     0.0233
     97 H         -1.262844   -7.881474   -7.72382 H        1 UNL1     0.0280
     98 H         -1.410362   -8.110826   -6.002535 H        1 UNL1     0.0280
     99 H         -2.483949   -6.949277   -6.837966 H        1 UNL1     0.0280
     100 H         1.681366   -6.718315   -8.736208 H        1 UNL1     0.2922
     101 H         -1.355198   1.649168   -5.615143 H        1 UNL1     0.0236
     102 H         -0.274826   3.001136   -5.094527 H        1 UNL1     0.0236
     103 H         -1.5558   2.423404   -4.074317 H        1 UNL1     0.0236
     104 H         -0.229447   3.216936   -2.72945 H        1 UNL1     0.2098
     105 H         0.398309   1.573116   0.614366 H        1 UNL1     0.0234
     106 H         -1.014677   0.643218   1.188698 H        1 UNL1     0.0234
     107 H         0.0   -0.0   0.0 H        1 UNL1     0.0234
     108 H         -3.077259   0.71084   -2.536731 H        1 UNL1     0.2098
     109 H         -0.183259   -2.568169   1.055614 H        1 UNL1     0.0234
     110 H         -0.783896   -2.600314   -0.632878 H        1 UNL1     0.0234
     111 H         -0.42647   -1.095523   0.139582 H        1 UNL1     0.0234
     112 H         -2.291058   2.98574   3.401282 H        1 UNL1     0.0342
     113 H         -1.41891   2.192826   2.041545 H        1 UNL1     0.0342
     114 H         -3.179213   2.102579   2.147192 H        1 UNL1     0.0342
     115 H         -5.647677   1.138512   1.219437 H        1 UNL1     0.0234
     116 H         -5.547951   0.018369   -0.142959 H        1 UNL1     0.0234
     117 H         -5.433739   -0.516997   1.546416 H        1 UNL1     0.0234
     118 H         -2.231358   -5.825547   -2.347361 H        1 UNL1     0.0309
     119 H         -0.556357   -5.886474   -2.978804 H        1 UNL1     0.0309
     120 H         -1.069711   -4.64995   -1.852025 H        1 UNL1     0.0309
     121 H         -4.40718   -1.320869   -2.286086 H        1 UNL1     0.0524
     122 H         -5.307879   -0.197732   -1.259363 H        1 UNL1     0.0524
     123 H         -3.535755   -0.301297   -1.109048 H        1 UNL1     0.0524
@<TRIPOS>BOND
     1     1     2    1
     2     1    42    1
     3     2     3    2
     4     3     4    1
     5     4     5    2
     6     5     7    1
     7     6    75    1
     8     6    76    1
     9     6    77    1
    10     7     9   am
    11     9    10    1
    12    10    11    2
    13    10    43    1
    14    11    14    1
    15    11    15    1
    16    12    13   ar
    17    12    27   ar
    18    12    43    1
    19    13    14    1
    20    13    30   ar
    21    14    17    2
    22    15    16    1
    23    16    17    1
    24    16    18    1
    25    16    22    1
    26    18    19    1
    27    19    20    1
    28    20    21    1
    29    21    22    1
    30    23    24    1
    31    23    88    1
    32    23    89    1
    33    24    25    1
    34    24    26    1
    35    24    90    1
    36    25    91    1
    37    25    92    1
    38    25    93    1
    39    26    94    1
    40    26    95    1
    41    26    96    1
    42    27    28   ar
    43    28    29   ar
    44    29    30   ar
    45    29    31    1
    46    30    33    1
    47    31    32    1
    48    32    33    1
    49    32    35    1
    50    34    97    1
    51    34    98    1
    52    34    99    1
    53    35    61    1
    54    36    37    1
    55    36    60    1
    56    37    38    1
    57    38    39    1
    58    39    40    1
    59    40    41    1
    60    41    42    1
    61    45   100    1
    62    47   101    1
    63    47   102    1
    64    47   103    1
    65    48   104    1
    66    49   105    1
    67    49   106    1
    68    49   107    1
    69    50   108    1
    70    51    59    1
    71    52   109    1
    72    52   110    1
    73    52   111    1
    74    53    54    1
    75    54    55    2
    76    54    56    1
    77    56   112    1
    78    56   113    1
    79    56   114    1
    80    57   115    1
    81    57   116    1
    82    57   117    1
    83    58   118    1
    84    58   119    1
    85    58   120    1
    86    59   121    1
    87    59   122    1
    88    59   123    1
    89    60    61    2
    90     1    47    1
    91     1    62    1
    92     2    63    1
    93     3    64    1
    94     4    65    1
    95     5     6    1
    96     7     8    2
    97     9    78    1
    98    15    79    1
    99    18    80    1
   100    18    81    1
   101    19    82    1
   102    19    83    1
   103    20    23    1
   104    21    84    1
   105    21    85    1
   106    22    86    1
   107    22    87    1
   108    27    45    1
   109    28    34    1
   110    32    58    1
   111    33    46    2
   112    36    51    1
   113    36    66    1
   114    37    52    1
   115    37    67    1
   116    38    53    1
   117    38    68    1
   118    42    48    1
   119    42    72    1
   120    43    44    2
   121    60    73    1
   122    61    74    1
   123    39    69    1
   124    39    57    1
   125    40    70    1
   126    40    50    1
   127    41    71    1
   128    41    49    1
