@<TRIPOS>MOLECULE
*****
 123 128 0 0 0
SMALL
GASTEIGER

@<TRIPOS>ATOM
     1 C         5.115789   1.915992   0.396167 C.3        1 UNL1     0.0009
     2 C         6.555533   2.651645   -0.51102 C.2        1 UNL1     -0.0787
     3 C         7.855039   2.507172   -1.132678 C.2        1 UNL1     -0.0649
     4 C         8.724512   3.666574   -2.007983 C.2        1 UNL1     -0.0542
     5 C         9.760745   3.87226   -2.951907 C.2        1 UNL1     0.0115
     6 C         10.922596   3.17738   -3.713856 C.3        1 UNL1     -0.0348
     7 C         9.839669   5.276833   -3.725171 C.2        1 UNL1     0.2441
     8 O         10.636663   6.156092   -3.428138 O.2        1 UNL1     -0.2702
     9 N         9.114027   5.328527   -4.928052 N.am        1 UNL1     -0.2772
     10 C         7.816207   5.718539   -4.689568 C.2        1 UNL1     0.1049
     11 C         6.984143   4.767861   -4.304726 C.2        1 UNL1     0.0801
     12 C         6.450355   7.447012   -3.504594 C.ar        1 UNL1     0.0753
     13 C         5.704469   6.361067   -2.945142 C.ar        1 UNL1     0.0305
     14 C         5.864494   4.992357   -3.431019 C.2        1 UNL1     0.0924
     15 N         7.138489   3.432681   -4.304904 N.pl3        1 UNL1     -0.3170
     16 C         5.874211   2.844154   -3.950654 C.3        1 UNL1     0.1275
     17 N         5.194192   3.891434   -3.103009 N.2        1 UNL1     -0.2557
     18 C         5.051369   2.735756   -5.230843 C.3        1 UNL1     0.0016
     19 C         5.847738   1.943235   -6.255194 C.3        1 UNL1     0.0026
     20 N         6.137276   0.626098   -5.705334 N.3        1 UNL1     -0.3018
     21 C         6.873395   0.628937   -4.439439 C.3        1 UNL1     0.0026
     22 C         6.053224   1.426391   -3.423919 C.3        1 UNL1     0.0016
     23 C         6.625815   -0.30607   -6.701846 C.3        1 UNL1     0.0012
     24 C         5.500148   -0.695285   -7.673 C.3        1 UNL1     -0.0339
     25 C         5.533019   0.166053   -8.946214 C.3        1 UNL1     -0.0615
     26 C         5.581764   -2.176667   -7.998005 C.3        1 UNL1     -0.0615
     27 C         6.206023   8.763614   -3.121214 C.ar        1 UNL1     0.1347
     28 C         5.218399   9.120087   -2.220339 C.ar        1 UNL1     0.0342
     29 C         4.529802   8.030521   -1.646019 C.ar        1 UNL1     0.1435
     30 C         4.788376   6.704008   -1.99347 C.ar        1 UNL1     0.0774
     31 O         3.46616   8.217795   -0.834476 O.3        1 UNL1     -0.4436
     32 C         2.774212   6.960054   -0.847439 C.3        1 UNL1     0.3143
     33 C         3.820811   5.936132   -1.237856 C.2        1 UNL1     0.2504
     34 C         4.732361   10.517169   -1.951959 C.3        1 UNL1     -0.0327
     35 O         2.390852   6.670845   0.502615 O.2        1 UNL1     -0.4528
     36 C         -0.800268   4.629341   0.263653 C.3        1 UNL1     0.0854
     37 C         -1.057073   3.26614   -0.486852 C.3        1 UNL1     0.0236
     38 C         -1.650037   2.09133   0.42964 C.3        1 UNL1     0.1131
     39 C         -0.94522   1.732575   1.799603 C.3        1 UNL1     0.0200
     40 C         0.717165   1.632207   1.893612 C.3        1 UNL1     0.0661
     41 C         1.720668   0.75571   0.843685 C.3        1 UNL1     0.0091
     42 C         3.433502   1.090629   0.278502 C.3        1 UNL1     0.0661
     43 C         7.431584   7.133022   -4.572704 C.2        1 UNL1     0.2131
     44 O         7.82991   7.950736   -5.382282 O.2        1 UNL1     -0.2851
     45 O         7.007305   9.757382   -3.679615 O.3        1 UNL1     -0.5056
     46 O         3.85888   4.756669   -0.967168 O.2        1 UNL1     -0.2836
     47 C         5.485919   1.666076   1.882952 C.3        1 UNL1     -0.0566
     48 O         3.909473   -0.290382   0.534187 O.3        1 UNL1     -0.3909
     49 C         0.922012   0.360893   -0.378511 C.3        1 UNL1     -0.0577
     50 O         1.281907   2.901344   2.154533 O.3        1 UNL1     -0.3910
     51 O         -0.954214   4.599769   1.664673 O.3        1 UNL1     -0.3753
     52 C         0.018295   2.99761   -1.589768 C.3        1 UNL1     -0.0564
     53 O         -2.208584   0.940826   -0.355658 O.3        1 UNL1     -0.4608
     54 C         -2.411438   -0.326216   0.125366 C.2        1 UNL1     0.3042
     55 O         -1.807679   -1.350636   -0.19067 O.2        1 UNL1     -0.2512
     56 C         -3.46303   -0.402041   1.195467 C.3        1 UNL1     0.0332
     57 C         -1.710655   2.52634   2.958147 C.3        1 UNL1     -0.0567
     58 C         1.720843   7.051941   -1.975934 C.3        1 UNL1     0.0210
     59 C         -1.340723   5.841565   2.251545 C.3        1 UNL1     0.0372
     60 C         0.52045   5.258672   -0.009858 C.2        1 UNL1     -0.0208
     61 C         1.402591   5.813504   0.822448 C.2        1 UNL1     0.0882
     62 H         4.617323   2.892084   0.357577 H        1 UNL1     0.0365
     63 H         6.264731   3.703935   -0.535268 H        1 UNL1     0.0576
     64 H         8.338144   1.5323   -1.22934 H        1 UNL1     0.0615
     65 H         8.210011   4.604275   -1.781074 H        1 UNL1     0.0622
     66 H         -1.55265   5.316902   -0.147719 H        1 UNL1     0.0645
     67 H         -1.913776   3.48177   -1.14876 H        1 UNL1     0.0362
     68 H         -2.61436   2.543563   0.70729 H        1 UNL1     0.0741
     69 H         -1.260102   0.74347   2.104445 H        1 UNL1     0.0359
     70 H         0.82128   1.081601   2.848104 H        1 UNL1     0.0600
     71 H         1.775268   -0.207594   1.387763 H        1 UNL1     0.0348
     72 H         3.293558   1.686739   1.191949 H        1 UNL1     0.0602
     73 H         0.659394   5.336852   -1.059539 H        1 UNL1     0.0628
     74 H         1.363415   5.728251   1.908926 H        1 UNL1     0.1022
     75 H         10.986533   2.098742   -3.431924 H        1 UNL1     0.0279
     76 H         10.833558   3.131538   -4.796926 H        1 UNL1     0.0279
     77 H         11.912797   3.541706   -3.40326 H        1 UNL1     0.0279
     78 H         9.083108   4.402255   -5.348936 H        1 UNL1     0.1553
     79 H         7.827441   2.951717   -4.853495 H        1 UNL1     0.1484
     80 H         4.096164   2.248078   -5.001674 H        1 UNL1     0.0317
     81 H         4.809712   3.728325   -5.625888 H        1 UNL1     0.0317
     82 H         6.772806   2.464012   -6.543211 H        1 UNL1     0.0428
     83 H         5.243474   1.879537   -7.160653 H        1 UNL1     0.0428
     84 H         7.00802   -0.367868   -4.008085 H        1 UNL1     0.0428
     85 H         7.897757   1.006709   -4.563087 H        1 UNL1     0.0428
     86 H         6.552517   1.295572   -2.481803 H        1 UNL1     0.0317
     87 H         5.081268   0.943461   -3.265253 H        1 UNL1     0.0317
     88 H         7.422936   0.189476   -7.271344 H        1 UNL1     0.0429
     89 H         7.069496   -1.19413   -6.233583 H        1 UNL1     0.0429
     90 H         4.532583   -0.550088   -7.178077 H        1 UNL1     0.0308
     91 H         6.495612   0.080856   -9.4593 H        1 UNL1     0.0233
     92 H         4.73417   -0.126893   -9.63151 H        1 UNL1     0.0233
     93 H         5.378744   1.230968   -8.734102 H        1 UNL1     0.0233
     94 H         4.90892   -2.418947   -8.827714 H        1 UNL1     0.0233
     95 H         6.599444   -2.436929   -8.302231 H        1 UNL1     0.0233
     96 H         5.303051   -2.790128   -7.136638 H        1 UNL1     0.0233
     97 H         3.922456   10.534937   -1.228794 H        1 UNL1     0.0280
     98 H         5.521304   11.156927   -1.535386 H        1 UNL1     0.0280
     99 H         4.368212   10.967753   -2.889757 H        1 UNL1     0.0280
     100 H         6.532629   10.453799   -4.098314 H        1 UNL1     0.2922
     101 H         4.620353   1.273769   2.416381 H        1 UNL1     0.0236
     102 H         5.905454   2.543709   2.3736 H        1 UNL1     0.0236
     103 H         6.258658   0.886864   1.992014 H        1 UNL1     0.0236
     104 H         4.310158   -0.304009   1.425387 H        1 UNL1     0.2098
     105 H         0.704566   1.181703   -1.057334 H        1 UNL1     0.0234
     106 H         1.323738   -0.489075   -0.929961 H        1 UNL1     0.0234
     107 H         0.0   -0.0   0.0 H        1 UNL1     0.0234
     108 H         1.086532   3.469628   1.384696 H        1 UNL1     0.2098
     109 H         1.035722   2.953408   -1.176731 H        1 UNL1     0.0234
     110 H         -0.18011   2.091871   -2.172877 H        1 UNL1     0.0234
     111 H         0.036838   3.798817   -2.340548 H        1 UNL1     0.0234
     112 H         -3.571392   -1.435551   1.538191 H        1 UNL1     0.0342
     113 H         -3.248318   0.265413   2.028683 H        1 UNL1     0.0342
     114 H         -4.421246   -0.090223   0.757568 H        1 UNL1     0.0342
     115 H         -2.769894   2.240628   3.017894 H        1 UNL1     0.0234
     116 H         -1.277241   2.389838   3.950905 H        1 UNL1     0.0234
     117 H         -1.792728   3.610424   2.768496 H        1 UNL1     0.0234
     118 H         0.799968   7.561982   -1.642987 H        1 UNL1     0.0309
     119 H         2.098284   7.546168   -2.876756 H        1 UNL1     0.0309
     120 H         1.362394   6.067963   -2.297506 H        1 UNL1     0.0309
     121 H         -0.54877   6.562275   2.049692 H        1 UNL1     0.0524
     122 H         -2.271274   6.239565   1.813701 H        1 UNL1     0.0524
     123 H         -1.477004   5.724668   3.322925 H        1 UNL1     0.0524
@<TRIPOS>BOND
     1     1     2    1
     2     1    42    1
     3     2     3    2
     4     3     4    1
     5     4     5    2
     6     5     7    1
     7     6    75    1
     8     6    76    1
     9     6    77    1
    10     7     9   am
    11     9    10    1
    12    10    11    2
    13    10    43    1
    14    11    14    1
    15    11    15    1
    16    12    13   ar
    17    12    27   ar
    18    12    43    1
    19    13    14    1
    20    13    30   ar
    21    14    17    2
    22    15    16    1
    23    16    17    1
    24    16    18    1
    25    16    22    1
    26    18    19    1
    27    19    20    1
    28    20    21    1
    29    21    22    1
    30    23    24    1
    31    23    88    1
    32    23    89    1
    33    24    25    1
    34    24    26    1
    35    24    90    1
    36    25    91    1
    37    25    92    1
    38    25    93    1
    39    26    94    1
    40    26    95    1
    41    26    96    1
    42    27    28   ar
    43    28    29   ar
    44    29    30   ar
    45    29    31    1
    46    30    33    1
    47    31    32    1
    48    32    33    1
    49    32    35    1
    50    34    97    1
    51    34    98    1
    52    34    99    1
    53    35    61    1
    54    36    37    1
    55    36    60    1
    56    37    38    1
    57    38    39    1
    58    39    40    1
    59    40    41    1
    60    41    42    1
    61    45   100    1
    62    47   101    1
    63    47   102    1
    64    47   103    1
    65    48   104    1
    66    49   105    1
    67    49   106    1
    68    49   107    1
    69    50   108    1
    70    51    59    1
    71    52   109    1
    72    52   110    1
    73    52   111    1
    74    53    54    1
    75    54    55    2
    76    54    56    1
    77    56   112    1
    78    56   113    1
    79    56   114    1
    80    57   115    1
    81    57   116    1
    82    57   117    1
    83    58   118    1
    84    58   119    1
    85    58   120    1
    86    59   121    1
    87    59   122    1
    88    59   123    1
    89    60    61    2
    90     1    47    1
    91     1    62    1
    92     2    63    1
    93     3    64    1
    94     4    65    1
    95     5     6    1
    96     7     8    2
    97     9    78    1
    98    15    79    1
    99    18    80    1
   100    18    81    1
   101    19    82    1
   102    19    83    1
   103    20    23    1
   104    21    84    1
   105    21    85    1
   106    22    86    1
   107    22    87    1
   108    27    45    1
   109    28    34    1
   110    32    58    1
   111    33    46    2
   112    36    51    1
   113    36    66    1
   114    37    52    1
   115    37    67    1
   116    38    53    1
   117    38    68    1
   118    42    48    1
   119    42    72    1
   120    43    44    2
   121    60    73    1
   122    61    74    1
   123    39    69    1
   124    39    57    1
   125    40    70    1
   126    40    50    1
   127    41    71    1
   128    41    49    1
