@<TRIPOS>MOLECULE
*****
 123 128 0 0 0
SMALL
GASTEIGER

@<TRIPOS>ATOM
     1 C         5.165489   1.753215   0.493186 C.3        1 UNL1     0.0009
     2 C         6.601791   2.560572   -0.356666 C.2        1 UNL1     -0.0787
     3 C         7.883992   2.463498   -1.021934 C.2        1 UNL1     -0.0649
     4 C         8.760652   3.699388   -1.777181 C.2        1 UNL1     -0.0542
     5 C         9.780765   3.992926   -2.715416 C.2        1 UNL1     0.0115
     6 C         10.90981   3.368466   -3.580649 C.3        1 UNL1     -0.0348
     7 C         9.875049   5.476275   -3.321861 C.2        1 UNL1     0.2441
     8 O         10.698091   6.298622   -2.943876 O.2        1 UNL1     -0.2702
     9 N         9.125072   5.68262   -4.492803 N.am        1 UNL1     -0.2772
     10 C         7.841912   6.068194   -4.179503 C.2        1 UNL1     0.1049
     11 C         6.996855   5.096051   -3.887891 C.2        1 UNL1     0.0801
     12 C         6.541635   7.673706   -2.769204 C.ar        1 UNL1     0.0753
     13 C         5.783384   6.545132   -2.322008 C.ar        1 UNL1     0.0305
     14 C         5.901668   5.239543   -2.967375 C.2        1 UNL1     0.0924
     15 N         7.120673   3.767181   -4.04696 N.pl3        1 UNL1     -0.3170
     16 C         5.851215   3.166917   -3.733251 C.3        1 UNL1     0.1275
     17 N         5.213643   4.121588   -2.753542 N.2        1 UNL1     -0.2557
     18 C         4.998771   3.225278   -4.997227 C.3        1 UNL1     0.0016
     19 C         5.754644   2.541854   -6.125578 C.3        1 UNL1     0.0026
     20 N         6.025829   1.163978   -5.739646 N.3        1 UNL1     -0.3018
     21 C         6.788878   1.004216   -4.500048 C.3        1 UNL1     0.0026
     22 C         6.009137   1.694048   -3.37932 C.3        1 UNL1     0.0016
     23 C         6.471438   0.344841   -6.849192 C.3        1 UNL1     0.0012
     24 C         5.31656   0.094392   -7.831683 C.3        1 UNL1     -0.0339
     25 C         5.391799   1.04089   -9.041037 C.3        1 UNL1     -0.0615
     26 C         5.305275   -1.362226   -8.261704 C.3        1 UNL1     -0.0615
     27 C         6.335694   8.941215   -2.229641 C.ar        1 UNL1     0.1347
     28 C         5.37606   9.209924   -1.26998 C.ar        1 UNL1     0.0342
     29 C         4.675306   8.074865   -0.809817 C.ar        1 UNL1     0.1435
     30 C         4.89603   6.793035   -1.3152 C.ar        1 UNL1     0.0774
     31 O         3.633913   8.187526   0.043303 O.3        1 UNL1     -0.4436
     32 C         2.913343   6.95409   -0.099133 C.3        1 UNL1     0.3143
     33 C         3.927681   5.961861   -0.630936 C.2        1 UNL1     0.2504
     34 C         4.927893   10.575638   -0.829444 C.3        1 UNL1     -0.0327
     35 O         2.552614   6.517063   1.216972 O.2        1 UNL1     -0.4528
     36 C         -0.688634   4.582102   0.819066 C.3        1 UNL1     0.0854
     37 C         -0.992541   3.321267   -0.078408 C.3        1 UNL1     0.0236
     38 C         -1.592294   2.0597   0.709304 C.3        1 UNL1     0.1131
     39 C         -0.86654   1.529374   2.010959 C.3        1 UNL1     0.0200
     40 C         0.794762   1.385252   2.052711 C.3        1 UNL1     0.0661
     41 C         1.755201   0.617257   0.884229 C.3        1 UNL1     0.0091
     42 C         3.462676   0.981282   0.320829 C.3        1 UNL1     0.0661
     43 C         7.492249   7.466828   -3.889826 C.2        1 UNL1     0.2131
     44 O         7.891615   8.365255   -4.608209 O.2        1 UNL1     -0.2851
     45 O         7.147234   9.977021   -2.687837 O.3        1 UNL1     -0.5056
     46 O         3.944656   4.75834   -0.500161 O.2        1 UNL1     -0.2836
     47 C         5.561715   1.324068   1.931526 C.3        1 UNL1     -0.0566
     48 O         3.912419   -0.429439   0.402763 O.3        1 UNL1     -0.3909
     49 C         0.921648   0.383959   -0.356035 C.3        1 UNL1     -0.0577
     50 O         1.39378   2.603626   2.445732 O.3        1 UNL1     -0.3910
     51 O         -0.813046   4.392315   2.210444 O.3        1 UNL1     -0.3753
     52 C         0.052453   3.161695   -1.230568 C.3        1 UNL1     -0.0564
     53 O         -2.193693   1.020204   -0.190748 O.3        1 UNL1     -0.4608
     54 C         -2.427103   -0.286749   0.148844 C.2        1 UNL1     0.3042
     55 O         -1.855979   -1.285288   -0.287706 O.2        1 UNL1     -0.2512
     56 C         -3.468855   -0.453402   1.21828 C.3        1 UNL1     0.0332
     57 C         -1.588579   2.197747   3.271955 C.3        1 UNL1     -0.0567
     58 C         1.838316   7.198263   -1.183672 C.3        1 UNL1     0.0210
     59 C         -1.127509   5.57105   2.950418 C.3        1 UNL1     0.0372
     60 C         0.639904   5.212322   0.588912 C.2        1 UNL1     -0.0208
     61 C         1.552165   5.648334   1.458635 C.2        1 UNL1     0.0882
     62 H         4.688698   2.73698   0.58029 H        1 UNL1     0.0365
     63 H         6.334607   3.614143   -0.251454 H        1 UNL1     0.0576
     64 H         8.342549   1.497039   -1.242823 H        1 UNL1     0.0615
     65 H         8.272668   4.614368   -1.430532 H        1 UNL1     0.0622
     66 H         -1.433814   5.327993   0.508585 H        1 UNL1     0.0645
     67 H         -1.858142   3.629892   -0.689999 H        1 UNL1     0.0362
     68 H         -2.539858   2.495767   1.060714 H        1 UNL1     0.0741
     69 H         -1.197266   0.517994   2.206248 H        1 UNL1     0.0359
     70 H         0.906798   0.725019   2.93396 H        1 UNL1     0.0600
     71 H         1.799509   -0.40387   1.311188 H        1 UNL1     0.0348
     72 H         3.356041   1.469399   1.300464 H        1 UNL1     0.0602
     73 H         0.757987   5.409669   -0.447601 H        1 UNL1     0.0628
     74 H         1.534432   5.437659   2.528466 H        1 UNL1     0.1022
     75 H         10.936581   2.259819   -3.449426 H        1 UNL1     0.0279
     76 H         10.809895   3.474432   -4.658544 H        1 UNL1     0.0279
     77 H         11.915318   3.651839   -3.236621 H        1 UNL1     0.0279
     78 H         9.063993   4.812616   -5.017628 H        1 UNL1     0.1553
     79 H         7.786519   3.339755   -4.664121 H        1 UNL1     0.1484
     80 H         4.037842   2.733526   -4.803418 H        1 UNL1     0.0317
     81 H         4.771371   4.261836   -5.268313 H        1 UNL1     0.0317
     82 H         6.684938   3.073948   -6.373249 H        1 UNL1     0.0428
     83 H         5.129749   2.596459   -7.017528 H        1 UNL1     0.0428
     84 H         6.909982   -0.038631   -4.190832 H        1 UNL1     0.0428
     85 H         7.818691   1.373127   -4.603517 H        1 UNL1     0.0428
     86 H         6.525464   1.444131   -2.47106 H        1 UNL1     0.0317
     87 H         5.030057   1.215578   -3.254561 H        1 UNL1     0.0317
     88 H         7.267218   0.887313   -7.376214 H        1 UNL1     0.0429
     89 H         6.90472   -0.60056   -6.498111 H        1 UNL1     0.0429
     90 H         4.363552   0.261838   -7.315979 H        1 UNL1     0.0308
     91 H         6.347083   0.941441   -9.565102 H        1 UNL1     0.0233
     92 H         4.576612   0.839981   -9.740119 H        1 UNL1     0.0233
     93 H         5.295054   2.094755   -8.753211 H        1 UNL1     0.0233
     94 H         4.613595   -1.503435   -9.099244 H        1 UNL1     0.0233
     95 H         6.303159   -1.661302   -8.594486 H        1 UNL1     0.0233
     96 H         4.995022   -2.01759   -7.44304 H        1 UNL1     0.0233
     97 H         4.128054   10.525318   -0.096672 H        1 UNL1     0.0280
     98 H         5.737576   11.142894   -0.352066 H        1 UNL1     0.0280
     99 H         4.562836   11.143229   -1.701034 H        1 UNL1     0.0280
     100 H         6.679684   10.727754   -3.009428 H        1 UNL1     0.2922
     101 H         4.695947   0.901111   2.440651 H        1 UNL1     0.0236
     102 H         6.02271   2.126433   2.506571 H        1 UNL1     0.0236
     103 H         6.30948   0.513488   1.930665 H        1 UNL1     0.0236
     104 H         4.326384   -0.556639   1.278791 H        1 UNL1     0.2098
     105 H         0.708427   1.282602   -0.929437 H        1 UNL1     0.0234
     106 H         1.291932   -0.403755   -1.012025 H        1 UNL1     0.0234
     107 H         0.0   -0.0   0.0 H        1 UNL1     0.0234
     108 H         1.209935   3.257048   1.743586 H        1 UNL1     0.2098
     109 H         1.078694   3.061493   -0.850435 H        1 UNL1     0.0234
     110 H         -0.172382   2.326781   -1.90296 H        1 UNL1     0.0234
     111 H         0.06433   4.039282   -1.890603 H        1 UNL1     0.0234
     112 H         -3.591366   -1.514367   1.456376 H        1 UNL1     0.0342
     113 H         -3.234265   0.123009   2.111903 H        1 UNL1     0.0342
     114 H         -4.426022   -0.083698   0.825451 H        1 UNL1     0.0342
     115 H         -2.658002   1.948556   3.309701 H        1 UNL1     0.0234
     116 H         -1.152207   1.918374   4.232986 H        1 UNL1     0.0234
     117 H         -1.628104   3.299569   3.223298 H        1 UNL1     0.0234
     118 H         0.936064   7.682993   -0.771381 H        1 UNL1     0.0309
     119 H         2.207039   7.78785   -2.029033 H        1 UNL1     0.0309
     120 H         1.451794   6.266003   -1.609815 H        1 UNL1     0.0309
     121 H         -0.290026   6.260073   2.844465 H        1 UNL1     0.0524
     122 H         -2.026712   6.079701   2.564744 H        1 UNL1     0.0524
     123 H         -1.282177   5.327305   3.997681 H        1 UNL1     0.0524
@<TRIPOS>BOND
     1     1     2    1
     2     1    42    1
     3     2     3    2
     4     3     4    1
     5     4     5    2
     6     5     7    1
     7     6    75    1
     8     6    76    1
     9     6    77    1
    10     7     9   am
    11     9    10    1
    12    10    11    2
    13    10    43    1
    14    11    14    1
    15    11    15    1
    16    12    13   ar
    17    12    27   ar
    18    12    43    1
    19    13    14    1
    20    13    30   ar
    21    14    17    2
    22    15    16    1
    23    16    17    1
    24    16    18    1
    25    16    22    1
    26    18    19    1
    27    19    20    1
    28    20    21    1
    29    21    22    1
    30    23    24    1
    31    23    88    1
    32    23    89    1
    33    24    25    1
    34    24    26    1
    35    24    90    1
    36    25    91    1
    37    25    92    1
    38    25    93    1
    39    26    94    1
    40    26    95    1
    41    26    96    1
    42    27    28   ar
    43    28    29   ar
    44    29    30   ar
    45    29    31    1
    46    30    33    1
    47    31    32    1
    48    32    33    1
    49    32    35    1
    50    34    97    1
    51    34    98    1
    52    34    99    1
    53    35    61    1
    54    36    37    1
    55    36    60    1
    56    37    38    1
    57    38    39    1
    58    39    40    1
    59    40    41    1
    60    41    42    1
    61    45   100    1
    62    47   101    1
    63    47   102    1
    64    47   103    1
    65    48   104    1
    66    49   105    1
    67    49   106    1
    68    49   107    1
    69    50   108    1
    70    51    59    1
    71    52   109    1
    72    52   110    1
    73    52   111    1
    74    53    54    1
    75    54    55    2
    76    54    56    1
    77    56   112    1
    78    56   113    1
    79    56   114    1
    80    57   115    1
    81    57   116    1
    82    57   117    1
    83    58   118    1
    84    58   119    1
    85    58   120    1
    86    59   121    1
    87    59   122    1
    88    59   123    1
    89    60    61    2
    90     1    47    1
    91     1    62    1
    92     2    63    1
    93     3    64    1
    94     4    65    1
    95     5     6    1
    96     7     8    2
    97     9    78    1
    98    15    79    1
    99    18    80    1
   100    18    81    1
   101    19    82    1
   102    19    83    1
   103    20    23    1
   104    21    84    1
   105    21    85    1
   106    22    86    1
   107    22    87    1
   108    27    45    1
   109    28    34    1
   110    32    58    1
   111    33    46    2
   112    36    51    1
   113    36    66    1
   114    37    52    1
   115    37    67    1
   116    38    53    1
   117    38    68    1
   118    42    48    1
   119    42    72    1
   120    43    44    2
   121    60    73    1
   122    61    74    1
   123    39    69    1
   124    39    57    1
   125    40    70    1
   126    40    50    1
   127    41    71    1
   128    41    49    1
