@<TRIPOS>MOLECULE
*****
 123 128 0 0 0
SMALL
GASTEIGER

@<TRIPOS>ATOM
     1 C         -2.134167   -4.628034   0.046601 C.3        1 UNL1     0.0009
     2 C         -3.769741   -5.499104   -0.009719 C.2        1 UNL1     -0.0787
     3 C         -4.957348   -5.985796   0.66018 C.2        1 UNL1     -0.0649
     4 C         -6.327735   -6.695527   -0.036011 C.2        1 UNL1     -0.0542
     5 C         -7.69708   -7.006055   0.152518 C.2        1 UNL1     0.0115
     6 C         -8.843173   -7.048879   1.200353 C.3        1 UNL1     -0.0348
     7 C         -8.598962   -7.351713   -1.129714 C.2        1 UNL1     0.2441
     8 O         -8.912239   -8.494312   -1.434428 O.2        1 UNL1     -0.2702
     9 N         -9.220821   -6.242383   -1.728738 N.am        1 UNL1     -0.2772
     10 C         -8.390731   -5.676142   -2.668762 C.2        1 UNL1     0.1049
     11 C         -7.480487   -4.835925   -2.210818 C.2        1 UNL1     0.0801
     12 C         -6.943303   -6.235173   -4.630844 C.ar        1 UNL1     0.0753
     13 C         -5.912884   -5.479   -3.986603 C.ar        1 UNL1     0.0305
     14 C         -6.191405   -4.64613   -2.818783 C.2        1 UNL1     0.0924
     15 N         -7.357088   -4.273844   -0.996171 N.pl3        1 UNL1     -0.3170
     16 C         -6.297727   -3.302763   -1.06694 C.3        1 UNL1     0.1275
     17 N         -5.391508   -3.811278   -2.161428 N.2        1 UNL1     -0.2557
     18 C         -6.907407   -2.005839   -1.590372 C.3        1 UNL1     0.0016
     19 C         -8.061923   -1.610467   -0.683531 C.3        1 UNL1     0.0026
     20 N         -7.555785   -1.441973   0.67163 N.3        1 UNL1     -0.3018
     21 C         -6.895495   -2.619198   1.239545 C.3        1 UNL1     0.0026
     22 C         -5.736397   -2.996064   0.31523 C.3        1 UNL1     0.0016
     23 C         -8.501523   -0.780965   1.548723 C.3        1 UNL1     0.0012
     24 C         -9.822022   -0.51003   0.810729 C.3        1 UNL1     -0.0339
     25 C         -10.721534   -1.756851   0.791432 C.3        1 UNL1     -0.0615
     26 C         -10.530815   0.681056   1.431782 C.3        1 UNL1     -0.0615
     27 C         -6.697079   -6.929886   -5.812735 C.ar        1 UNL1     0.1347
     28 C         -5.476116   -6.910828   -6.463072 C.ar        1 UNL1     0.0342
     29 C         -4.463307   -6.199932   -5.784832 C.ar        1 UNL1     0.1435
     30 C         -4.685707   -5.529086   -4.581618 C.ar        1 UNL1     0.0774
     31 O         -3.250058   -5.996833   -6.343208 O.3        1 UNL1     -0.4436
     32 C         -2.69811   -4.887706   -5.617907 C.3        1 UNL1     0.3143
     33 C         -3.422961   -4.884451   -4.287195 C.2        1 UNL1     0.2504
     34 C         -5.209125   -7.419355   -7.852394 C.3        1 UNL1     -0.0327
     35 O         -1.326041   -5.197727   -5.344838 O.2        1 UNL1     -0.4528
     36 C         0.490915   -1.866953   -5.232124 C.3        1 UNL1     0.0854
     37 C         0.21359   -0.61115   -4.319121 C.3        1 UNL1     0.0236
     38 C         1.47322   -0.104755   -3.465517 C.3        1 UNL1     0.1131
     39 C         2.292513   -1.135033   -2.588273 C.3        1 UNL1     0.0200
     40 C         1.500047   -2.272061   -1.660047 C.3        1 UNL1     0.0661
     41 C         0.226785   -1.962827   -0.582648 C.3        1 UNL1     0.0091
     42 C         -1.208068   -3.001971   -0.106433 C.3        1 UNL1     0.0661
     43 C         -8.306531   -6.182295   -4.04683 C.2        1 UNL1     0.2131
     44 O         -9.318418   -6.433758   -4.675789 O.2        1 UNL1     -0.2851
     45 O         -7.741943   -7.678428   -6.350677 O.3        1 UNL1     -0.5056
     46 O         -3.036245   -4.464511   -3.219508 O.2        1 UNL1     -0.2836
     47 C         -1.056059   -5.545793   0.683298 C.3        1 UNL1     -0.0566
     48 O         -1.036191   -2.772876   1.348589 O.3        1 UNL1     -0.3909
     49 C         -0.303391   -0.570037   -0.840614 C.3        1 UNL1     -0.0577
     50 O         1.220431   -3.431528   -2.418449 O.3        1 UNL1     -0.3910
     51 O         1.743069   -2.490803   -5.057906 O.3        1 UNL1     -0.3753
     52 C         -1.235784   -0.626922   -3.732591 C.3        1 UNL1     -0.0564
     53 O         1.295008   1.269608   -2.88959 O.3        1 UNL1     -0.4608
     54 C         0.706144   1.557163   -1.686061 C.2        1 UNL1     0.3042
     55 O         0.319009   0.75824   -0.834188 O.2        1 UNL1     -0.2512
     56 C         0.597639   3.029081   -1.406065 C.3        1 UNL1     0.0332
     57 C         3.541984   -1.623448   -3.459161 C.3        1 UNL1     -0.0567
     58 C         -3.089584   -3.613763   -6.402346 C.3        1 UNL1     0.0210
     59 C         2.804885   -1.611428   -4.69033 C.3        1 UNL1     0.0372
     60 C         -0.537655   -2.939921   -5.155027 C.2        1 UNL1     -0.0208
     61 C         -0.401005   -4.262797   -5.054665 C.2        1 UNL1     0.0882
     62 H         -2.051028   -4.754563   -1.03958 H        1 UNL1     0.0365
     63 H         -3.797113   -5.813417   -1.055151 H        1 UNL1     0.0576
     64 H         -5.145006   -5.777548   1.715891 H        1 UNL1     0.0615
     65 H         -6.009256   -6.932873   -1.054697 H        1 UNL1     0.0622
     66 H         0.443759   -1.477556   -6.258862 H        1 UNL1     0.0645
     67 H         0.086367   0.218615   -5.035964 H        1 UNL1     0.0362
     68 H         2.148528   0.181422   -4.286239 H        1 UNL1     0.0741
     69 H         2.866439   -0.586942   -1.853009 H        1 UNL1     0.0359
     70 H         2.323484   -2.574835   -0.985259 H        1 UNL1     0.0600
     71 H         0.798804   -1.807447   0.353091 H        1 UNL1     0.0348
     72 H         -0.465449   -3.68933   -0.536981 H        1 UNL1     0.0602
     73 H         -1.49702   -2.516676   -5.321549 H        1 UNL1     0.0628
     74 H         0.53688   -4.7703   -4.826522 H        1 UNL1     0.1022
     75 H         -9.371933   -8.03176   1.163033 H        1 UNL1     0.0279
     76 H         -8.548138   -6.981112   2.245069 H        1 UNL1     0.0279
     77 H         -9.661681   -6.353259   0.964006 H        1 UNL1     0.0279
     78 H         -9.411692   -5.534609   -1.022549 H        1 UNL1     0.1553
     79 H         -8.106579   -4.213394   -0.331685 H        1 UNL1     0.1484
     80 H         -6.132402   -1.230208   -1.613371 H        1 UNL1     0.0317
     81 H         -7.260243   -2.127016   -2.620166 H        1 UNL1     0.0317
     82 H         -8.874923   -2.35078   -0.71322 H        1 UNL1     0.0428
     83 H         -8.483265   -0.684413   -1.075891 H        1 UNL1     0.0428
     84 H         -6.454745   -2.441958   2.225516 H        1 UNL1     0.0428
     85 H         -7.602637   -3.443222   1.407629 H        1 UNL1     0.0428
     86 H         -5.19862   -3.772511   0.827005 H        1 UNL1     0.0317
     87 H         -5.011847   -2.173909   0.268489 H        1 UNL1     0.0317
     88 H         -8.705384   -1.448368   2.396253 H        1 UNL1     0.0429
     89 H         -8.081817   0.145085   1.962308 H        1 UNL1     0.0429
     90 H         -9.602538   -0.221757   -0.224132 H        1 UNL1     0.0308
     91 H         -10.73428   -2.253214   1.7664 H        1 UNL1     0.0233
     92 H         -11.743495   -1.491584   0.510654 H        1 UNL1     0.0233
     93 H         -10.386932   -2.501923   0.059486 H        1 UNL1     0.0233
     94 H         -10.435029   1.558147   0.782651 H        1 UNL1     0.0233
     95 H         -11.59603   0.462751   1.548492 H        1 UNL1     0.0233
     96 H         -10.111838   0.92856   2.411154 H        1 UNL1     0.0233
     97 H         -5.956098   -8.139254   -8.17334 H        1 UNL1     0.0280
     98 H         -5.227651   -6.61419   -8.598465 H        1 UNL1     0.0280
     99 H         -4.221925   -7.908848   -7.88285 H        1 UNL1     0.0280
     100 H         -7.771625   -8.573519   -6.061619 H        1 UNL1     0.2922
     101 H         -0.625268   -5.055987   1.556319 H        1 UNL1     0.0236
     102 H         -0.292281   -5.865032   -0.025018 H        1 UNL1     0.0236
     103 H         -1.48753   -6.483023   1.072689 H        1 UNL1     0.0236
     104 H         -1.666088   -3.356178   1.815451 H        1 UNL1     0.2098
     105 H         0.101264   -0.092986   -1.729707 H        1 UNL1     0.0234
     106 H         -1.390079   -0.487004   -0.82874 H        1 UNL1     0.0234
     107 H         0.0   0.0   0.0 H        1 UNL1     0.0234
     108 H         0.252544   -3.561002   -2.404301 H        1 UNL1     0.2098
     109 H         -1.839849   0.217148   -4.093648 H        1 UNL1     0.0234
     110 H         -1.767005   -1.565665   -3.92314 H        1 UNL1     0.0234
     111 H         -1.230288   -0.541659   -2.637764 H        1 UNL1     0.0234
     112 H         1.34519   3.322636   -0.66287 H        1 UNL1     0.0342
     113 H         0.691679   3.626283   -2.311796 H        1 UNL1     0.0342
     114 H         -0.395928   3.224931   -0.979881 H        1 UNL1     0.0342
     115 H         4.039837   -2.492557   -3.00752 H        1 UNL1     0.0234
     116 H         3.289864   -1.887475   -4.488129 H        1 UNL1     0.0234
     117 H         4.370117   -0.894531   -3.487748 H        1 UNL1     0.0234
     118 H         -3.390206   -3.841775   -7.43996 H        1 UNL1     0.0309
     119 H         -3.884303   -3.037923   -5.917544 H        1 UNL1     0.0309
     120 H         -2.248731   -2.923088   -6.528996 H        1 UNL1     0.0309
     121 H         3.615933   -1.757839   -5.403156 H        1 UNL1     0.0524
     122 H         2.506258   -0.551075   -4.740437 H        1 UNL1     0.0524
     123 H         3.146046   -1.834438   -3.683369 H        1 UNL1     0.0524
@<TRIPOS>BOND
     1     1     2    1
     2     1    42    1
     3     2     3    2
     4     3     4    1
     5     4     5    2
     6     5     7    1
     7     6    75    1
     8     6    76    1
     9     6    77    1
    10     7     9   am
    11     9    10    1
    12    10    11    2
    13    10    43    1
    14    11    14    1
    15    11    15    1
    16    12    13   ar
    17    12    27   ar
    18    12    43    1
    19    13    14    1
    20    13    30   ar
    21    14    17    2
    22    15    16    1
    23    16    17    1
    24    16    18    1
    25    16    22    1
    26    18    19    1
    27    19    20    1
    28    20    21    1
    29    21    22    1
    30    23    24    1
    31    23    88    1
    32    23    89    1
    33    24    25    1
    34    24    26    1
    35    24    90    1
    36    25    91    1
    37    25    92    1
    38    25    93    1
    39    26    94    1
    40    26    95    1
    41    26    96    1
    42    27    28   ar
    43    28    29   ar
    44    29    30   ar
    45    29    31    1
    46    30    33    1
    47    31    32    1
    48    32    33    1
    49    32    35    1
    50    34    97    1
    51    34    98    1
    52    34    99    1
    53    35    61    1
    54    36    37    1
    55    36    60    1
    56    37    38    1
    57    38    39    1
    58    39    40    1
    59    40    41    1
    60    41    42    1
    61    45   100    1
    62    47   101    1
    63    47   102    1
    64    47   103    1
    65    48   104    1
    66    49   105    1
    67    49   106    1
    68    49   107    1
    69    50   108    1
    70    51    59    1
    71    52   109    1
    72    52   110    1
    73    52   111    1
    74    53    54    1
    75    54    55    2
    76    54    56    1
    77    56   112    1
    78    56   113    1
    79    56   114    1
    80    57   115    1
    81    57   116    1
    82    57   117    1
    83    58   118    1
    84    58   119    1
    85    58   120    1
    86    59   121    1
    87    59   122    1
    88    59   123    1
    89    60    61    2
    90     1    47    1
    91     1    62    1
    92     2    63    1
    93     3    64    1
    94     4    65    1
    95     5     6    1
    96     7     8    2
    97     9    78    1
    98    15    79    1
    99    18    80    1
   100    18    81    1
   101    19    82    1
   102    19    83    1
   103    20    23    1
   104    21    84    1
   105    21    85    1
   106    22    86    1
   107    22    87    1
   108    27    45    1
   109    28    34    1
   110    32    58    1
   111    33    46    2
   112    36    51    1
   113    36    66    1
   114    37    52    1
   115    37    67    1
   116    38    53    1
   117    38    68    1
   118    42    48    1
   119    42    72    1
   120    43    44    2
   121    60    73    1
   122    61    74    1
   123    39    69    1
   124    39    57    1
   125    40    70    1
   126    40    50    1
   127    41    71    1
   128    41    49    1
