@<TRIPOS>MOLECULE
*****
 123 128 0 0 0
SMALL
GASTEIGER

@<TRIPOS>ATOM
     1 C         -2.177091   0.940592   -4.590289 C.3        1 UNL1     0.0009
     2 C         -2.247567   0.179464   -6.279298 C.2        1 UNL1     -0.0787
     3 C         -1.953964   0.236275   -7.695849 C.2        1 UNL1     -0.0649
     4 C         -2.197241   -0.970435   -8.858184 C.2        1 UNL1     -0.0542
     5 C         -1.826286   -1.435795   -10.143839 C.2        1 UNL1     0.0115
     6 C         -1.054681   -1.064924   -11.440143 C.3        1 UNL1     -0.0348
     7 C         -2.13859   -2.960239   -10.538209 C.2        1 UNL1     0.2441
     8 O         -3.074761   -3.283393   -11.256318 O.2        1 UNL1     -0.2702
     9 N         -1.117078   -3.872048   -10.219985 N.am        1 UNL1     -0.2772
     10 C         -1.276038   -4.342628   -8.936782 C.2        1 UNL1     0.1049
     11 C         -0.801572   -3.575098   -7.972416 C.2        1 UNL1     0.0801
     12 C         -2.971153   -5.319391   -7.377984 C.ar        1 UNL1     0.0753
     13 C         -2.561148   -4.324621   -6.43409 C.ar        1 UNL1     0.0305
     14 C         -1.37172   -3.504979   -6.654315 C.2        1 UNL1     0.0924
     15 N         0.002256   -2.50004   -8.040539 N.pl3        1 UNL1     -0.3170
     16 C         0.361354   -2.133995   -6.696175 C.3        1 UNL1     0.1275
     17 N         -0.793453   -2.615511   -5.852204 N.2        1 UNL1     -0.2557
     18 C         1.561042   -2.989193   -6.299836 C.3        1 UNL1     0.0016
     19 C         2.665855   -2.781346   -7.323446 C.3        1 UNL1     0.0026
     20 N         3.016594   -1.368139   -7.352713 N.3        1 UNL1     -0.3018
     21 C         1.911378   -0.459591   -7.664812 C.3        1 UNL1     0.0026
     22 C         0.814983   -0.68203   -6.62158 C.3        1 UNL1     0.0016
     23 C         4.25055   -1.108023   -8.06709 C.3        1 UNL1     0.0012
     24 C         5.462975   -1.355808   -7.155835 C.3        1 UNL1     -0.0339
     25 C         6.737698   -1.617777   -7.974683 C.3        1 UNL1     -0.0615
     26 C         5.642679   -0.189616   -6.199549 C.3        1 UNL1     -0.0615
     27 C         -4.033607   -6.178062   -7.105963 C.ar        1 UNL1     0.1347
     28 C         -4.733685   -6.163667   -5.91276 C.ar        1 UNL1     0.0342
     29 C         -4.344292   -5.143913   -5.018535 C.ar        1 UNL1     0.1435
     30 C         -3.3056   -4.253251   -5.292508 C.ar        1 UNL1     0.0774
     31 O         -4.85576   -5.06783   -3.770489 O.3        1 UNL1     -0.4436
     32 C         -3.9182   -4.260023   -3.042957 C.3        1 UNL1     0.3143
     33 C         -3.197085   -3.443978   -4.096653 C.2        1 UNL1     0.2504
     34 C         -5.710593   -7.208915   -5.451015 C.3        1 UNL1     -0.0327
     35 O         -4.67588   -3.339229   -2.248406 O.2        1 UNL1     -0.4528
     36 C         -2.568339   -2.642577   0.830723 C.3        1 UNL1     0.0854
     37 C         -1.098079   -2.079613   0.925229 C.3        1 UNL1     0.0236
     38 C         -0.932557   -0.771729   1.838347 C.3        1 UNL1     0.1131
     39 C         -1.883587   0.47136   1.609129 C.3        1 UNL1     0.0200
     40 C         -2.230532   0.996188   0.064259 C.3        1 UNL1     0.0661
     41 C         -1.096161   1.303316   -1.15905 C.3        1 UNL1     0.0091
     42 C         -1.229222   1.117514   -2.979263 C.3        1 UNL1     0.0661
     43 C         -2.170398   -5.465732   -8.618805 C.2        1 UNL1     0.2131
     44 O         -2.15339   -6.479433   -9.293237 O.2        1 UNL1     -0.2851
     45 O         -4.398041   -7.087443   -8.096746 O.3        1 UNL1     -0.5056
     46 O         -2.670945   -2.359751   -3.980542 O.2        1 UNL1     -0.2836
     47 C         -3.215943   2.088115   -4.472141 C.3        1 UNL1     -0.0566
     48 O         -0.654993   2.453067   -3.271965 O.3        1 UNL1     -0.3909
     49 C         0.234078   0.710426   -0.751081 C.3        1 UNL1     -0.0577
     50 O         -3.336026   0.293914   -0.467172 O.3        1 UNL1     -0.3910
     51 O         -3.573579   -1.840004   1.407611 O.3        1 UNL1     -0.3753
     52 C         -0.318739   -2.259393   -0.41837 C.3        1 UNL1     -0.0564
     53 O         0.492382   -0.465656   2.19639 O.3        1 UNL1     -0.4608
     54 C         1.015894   -0.485465   3.462673 C.2        1 UNL1     0.3042
     55 O         0.614386   -1.13599   4.426751 O.2        1 UNL1     -0.2512
     56 C         2.249503   0.357863   3.616693 C.3        1 UNL1     0.0332
     57 C         -3.096546   0.347986   2.644351 C.3        1 UNL1     -0.0567
     58 C         -2.911032   -5.237063   -2.39293 C.3        1 UNL1     0.0210
     59 C         -3.390614   -0.435279   1.236913 C.3        1 UNL1     0.0372
     60 C         -3.025272   -2.980042   -0.544955 C.2        1 UNL1     -0.0208
     61 C         -4.178992   -2.719005   -1.161018 C.2        1 UNL1     0.0882
     62 H         -2.65695   0.041184   -4.185924 H        1 UNL1     0.0365
     63 H         -2.828229   -0.721908   -6.072345 H        1 UNL1     0.0576
     64 H         -1.369875   1.05235   -8.127092 H        1 UNL1     0.0615
     65 H         -2.849769   -1.689147   -8.35505 H        1 UNL1     0.0622
     66 H         -2.535207   -3.594469   1.379221 H        1 UNL1     0.0645
     67 H         -0.559801   -2.83484   1.523934 H        1 UNL1     0.0362
     68 H         -1.227925   -1.189269   2.812995 H        1 UNL1     0.0741
     69 H         -1.430279   1.344152   2.059855 H        1 UNL1     0.0359
     70 H         -2.626191   2.004944   0.289923 H        1 UNL1     0.0600
     71 H         -0.914493   2.382476   -0.987681 H        1 UNL1     0.0348
     72 H         -2.261487   1.152677   -2.601759 H        1 UNL1     0.0602
     73 H         -2.311974   -3.619371   -1.0029 H        1 UNL1     0.0628
     74 H         -4.935917   -2.029218   -0.786191 H        1 UNL1     0.1022
     75 H         -0.467305   -0.126813   -11.291915 H        1 UNL1     0.0279
     76 H         -0.293353   -1.768408   -11.769623 H        1 UNL1     0.0279
     77 H         -1.722634   -0.77455   -12.264293 H        1 UNL1     0.0279
     78 H         -0.214415   -3.403799   -10.264926 H        1 UNL1     0.1553
     79 H         0.575787   -2.28286   -8.834785 H        1 UNL1     0.1484
     80 H         1.888246   -2.701568   -5.293369 H        1 UNL1     0.0317
     81 H         1.286969   -4.048442   -6.24957 H        1 UNL1     0.0317
     82 H         2.368412   -3.136099   -8.321239 H        1 UNL1     0.0428
     83 H         3.510808   -3.40156   -7.022714 H        1 UNL1     0.0428
     84 H         2.182579   0.59886   -7.602014 H        1 UNL1     0.0428
     85 H         1.559353   -0.583953   -8.698219 H        1 UNL1     0.0428
     86 H         0.085497   0.086111   -6.7999 H        1 UNL1     0.0317
     87 H         1.195728   -0.443105   -5.621058 H        1 UNL1     0.0317
     88 H         4.305272   -1.800183   -8.91751 H        1 UNL1     0.0429
     89 H         4.266056   -0.090702   -8.478905 H        1 UNL1     0.0429
     90 H         5.26614   -2.23173   -6.526369 H        1 UNL1     0.0308
     91 H         6.913524   -0.82035   -8.702899 H        1 UNL1     0.0233
     92 H         7.607401   -1.702783   -7.31894 H        1 UNL1     0.0233
     93 H         6.686465   -2.557393   -8.538006 H        1 UNL1     0.0233
     94 H         5.154503   -0.406626   -5.243292 H        1 UNL1     0.0233
     95 H         6.706425   -0.026021   -6.005529 H        1 UNL1     0.0233
     96 H         5.212556   0.729904   -6.606297 H        1 UNL1     0.0233
     97 H         -6.033399   -7.852394   -6.26401 H        1 UNL1     0.0280
     98 H         -5.276578   -7.875492   -4.694336 H        1 UNL1     0.0280
     99 H         -6.600818   -6.718951   -5.02378 H        1 UNL1     0.0280
     100 H         -4.743242   -7.90109   -7.773578 H        1 UNL1     0.2922
     101 H         -4.189998   1.738898   -4.814079 H        1 UNL1     0.0236
     102 H         -2.906711   3.000366   -4.981216 H        1 UNL1     0.0236
     103 H         -3.379573   2.392406   -3.424847 H        1 UNL1     0.0236
     104 H         0.318175   2.365192   -3.258093 H        1 UNL1     0.2098
     105 H         0.757735   0.190406   -1.549313 H        1 UNL1     0.0234
     106 H         0.906763   1.404572   -0.247511 H        1 UNL1     0.0234
     107 H         0.0   0.0   0.0 H        1 UNL1     0.0234
     108 H         -3.027185   -0.604341   -0.69416 H        1 UNL1     0.2098
     109 H         -0.881524   -1.874761   -1.28037 H        1 UNL1     0.0234
     110 H         0.678931   -1.807623   -0.40101 H        1 UNL1     0.0234
     111 H         -0.127607   -3.318498   -0.636797 H        1 UNL1     0.0234
     112 H         2.169403   0.973383   4.517839 H        1 UNL1     0.0342
     113 H         3.157204   -0.243496   3.633705 H        1 UNL1     0.0342
     114 H         2.313669   1.033033   2.752291 H        1 UNL1     0.0342
     115 H         -2.795573   -0.168027   3.566487 H        1 UNL1     0.0234
     116 H         -3.533879   1.306129   2.932015 H        1 UNL1     0.0234
     117 H         -3.912013   -0.306089   2.290598 H        1 UNL1     0.0234
     118 H         -3.397499   -6.167458   -2.051284 H        1 UNL1     0.0309
     119 H         -2.073655   -5.491336   -3.050461 H        1 UNL1     0.0309
     120 H         -2.465662   -4.833838   -1.476872 H        1 UNL1     0.0309
     121 H         -3.187959   -0.007526   2.2184 H        1 UNL1     0.0524
     122 H         -2.529819   -0.201223   0.588618 H        1 UNL1     0.0524
     123 H         -4.284607   0.011147   0.810797 H        1 UNL1     0.0524
@<TRIPOS>BOND
     1     1     2    1
     2     1    42    1
     3     2     3    2
     4     3     4    1
     5     4     5    2
     6     5     7    1
     7     6    75    1
     8     6    76    1
     9     6    77    1
    10     7     9   am
    11     9    10    1
    12    10    11    2
    13    10    43    1
    14    11    14    1
    15    11    15    1
    16    12    13   ar
    17    12    27   ar
    18    12    43    1
    19    13    14    1
    20    13    30   ar
    21    14    17    2
    22    15    16    1
    23    16    17    1
    24    16    18    1
    25    16    22    1
    26    18    19    1
    27    19    20    1
    28    20    21    1
    29    21    22    1
    30    23    24    1
    31    23    88    1
    32    23    89    1
    33    24    25    1
    34    24    26    1
    35    24    90    1
    36    25    91    1
    37    25    92    1
    38    25    93    1
    39    26    94    1
    40    26    95    1
    41    26    96    1
    42    27    28   ar
    43    28    29   ar
    44    29    30   ar
    45    29    31    1
    46    30    33    1
    47    31    32    1
    48    32    33    1
    49    32    35    1
    50    34    97    1
    51    34    98    1
    52    34    99    1
    53    35    61    1
    54    36    37    1
    55    36    60    1
    56    37    38    1
    57    38    39    1
    58    39    40    1
    59    40    41    1
    60    41    42    1
    61    45   100    1
    62    47   101    1
    63    47   102    1
    64    47   103    1
    65    48   104    1
    66    49   105    1
    67    49   106    1
    68    49   107    1
    69    50   108    1
    70    51    59    1
    71    52   109    1
    72    52   110    1
    73    52   111    1
    74    53    54    1
    75    54    55    2
    76    54    56    1
    77    56   112    1
    78    56   113    1
    79    56   114    1
    80    57   115    1
    81    57   116    1
    82    57   117    1
    83    58   118    1
    84    58   119    1
    85    58   120    1
    86    59   121    1
    87    59   122    1
    88    59   123    1
    89    60    61    2
    90     1    47    1
    91     1    62    1
    92     2    63    1
    93     3    64    1
    94     4    65    1
    95     5     6    1
    96     7     8    2
    97     9    78    1
    98    15    79    1
    99    18    80    1
   100    18    81    1
   101    19    82    1
   102    19    83    1
   103    20    23    1
   104    21    84    1
   105    21    85    1
   106    22    86    1
   107    22    87    1
   108    27    45    1
   109    28    34    1
   110    32    58    1
   111    33    46    2
   112    36    51    1
   113    36    66    1
   114    37    52    1
   115    37    67    1
   116    38    53    1
   117    38    68    1
   118    42    48    1
   119    42    72    1
   120    43    44    2
   121    60    73    1
   122    61    74    1
   123    39    69    1
   124    39    57    1
   125    40    70    1
   126    40    50    1
   127    41    71    1
   128    41    49    1
