@<TRIPOS>MOLECULE
*****
 123 128 0 0 0
SMALL
GASTEIGER

@<TRIPOS>ATOM
     1 C         5.167351   1.7476   0.493573 C.3        1 UNL1     0.0009
     2 C         6.604484   2.553699   -0.356066 C.2        1 UNL1     -0.0787
     3 C         7.886555   2.455471   -1.021417 C.2        1 UNL1     -0.0649
     4 C         8.764511   3.690673   -1.776287 C.2        1 UNL1     -0.0542
     5 C         9.7849   3.983429   -2.714464 C.2        1 UNL1     0.0115
     6 C         10.913242   3.358047   -3.57995 C.3        1 UNL1     -0.0348
     7 C         9.880752   5.466878   -3.320418 C.2        1 UNL1     0.2441
     8 O         10.704691   6.288216   -2.942191 O.2        1 UNL1     -0.2702
     9 N         9.13095   5.674418   -4.491262 N.am        1 UNL1     -0.2772
     10 C         7.848218   6.061264   -4.177783 C.2        1 UNL1     0.1049
     11 C         7.00213   5.08993   -3.886461 C.2        1 UNL1     0.0801
     12 C         6.549719   7.667699   -2.766896 C.ar        1 UNL1     0.0753
     13 C         5.790275   6.53979   -2.320047 C.ar        1 UNL1     0.0305
     14 C         5.907133   5.23429   -2.965854 C.2        1 UNL1     0.0924
     15 N         7.124516   3.760982   -4.045978 N.pl3        1 UNL1     -0.3170
     16 C         5.854427   3.161975   -3.732419 C.3        1 UNL1     0.1275
     17 N         5.217918   4.117002   -2.752367 N.2        1 UNL1     -0.2557
     18 C         5.001996   3.221672   -4.996342 C.3        1 UNL1     0.0016
     19 C         5.757092   2.537814   -6.124951 C.3        1 UNL1     0.0026
     20 N         6.026814   1.159519   -5.739489 N.3        1 UNL1     -0.3018
     21 C         6.789739   0.998526   -4.499975 C.3        1 UNL1     0.0026
     22 C         6.010783   1.68882   -3.378986 C.3        1 UNL1     0.0016
     23 C         6.4715   0.340275   -6.849325 C.3        1 UNL1     0.0012
     24 C         5.316316   0.091392   -7.831855 C.3        1 UNL1     -0.0339
     25 C         5.34246   1.094973   -8.996414 C.3        1 UNL1     -0.0615
     26 C         5.355561   -1.343149   -8.32918 C.3        1 UNL1     -0.0615
     27 C         6.345158   8.935248   -2.226902 C.ar        1 UNL1     0.1347
     28 C         5.385851   9.204667   -1.267114 C.ar        1 UNL1     0.0342
     29 C         4.683898   8.070207   -0.807302 C.ar        1 UNL1     0.1435
     30 C         4.903227   6.788309   -1.313122 C.ar        1 UNL1     0.0774
     31 O         3.642659   8.1837   0.045896 O.3        1 UNL1     -0.4436
     32 C         2.920762   6.951085   -0.096923 C.3        1 UNL1     0.3143
     33 C         3.934014   5.957946   -0.629096 C.2        1 UNL1     0.2504
     34 C         4.939167   10.570713   -0.826106 C.3        1 UNL1     -0.0327
     35 O         2.559615   6.514006   1.219051 O.2        1 UNL1     -0.4528
     36 C         -0.683722   4.582656   0.820628 C.3        1 UNL1     0.0854
     37 C         -0.989016   3.322447   -0.077254 C.3        1 UNL1     0.0236
     38 C         -1.590091   2.061261   0.71006 C.3        1 UNL1     0.1131
     39 C         -0.864855   1.529723   2.01151 C.3        1 UNL1     0.0200
     40 C         0.796293   1.383806   2.053148 C.3        1 UNL1     0.0661
     41 C         1.755862   0.61517   0.884372 C.3        1 UNL1     0.0091
     42 C         3.463703   0.977552   0.321026 C.3        1 UNL1     0.0661
     43 C         7.500066   7.460175   -3.887625 C.2        1 UNL1     0.2131
     44 O         7.900367   8.358413   -4.605724 O.2        1 UNL1     -0.2851
     45 O         7.157792   9.970336   -2.684786 O.3        1 UNL1     -0.5056
     46 O         3.949703   4.754364   -0.498723 O.2        1 UNL1     -0.2836
     47 C         5.563172   1.317549   1.931754 C.3        1 UNL1     -0.0566
     48 O         3.911936   -0.433678   0.402472 O.3        1 UNL1     -0.3909
     49 C         0.92201   0.38318   -0.355936 C.3        1 UNL1     -0.0577
     50 O         1.396633   2.601405   2.446551 O.3        1 UNL1     -0.3910
     51 O         -0.808283   4.392538   2.211948 O.3        1 UNL1     -0.3753
     52 C         0.055761   3.162138   -1.229508 C.3        1 UNL1     -0.0564
     53 O         -2.19264   1.022712   -0.190315 O.3        1 UNL1     -0.4608
     54 C         -2.415335   -0.287343   0.144488 C.2        1 UNL1     0.3042
     55 O         -1.843114   -1.280292   -0.303234 O.2        1 UNL1     -0.2512
     56 C         -3.445273   -0.465607   1.223452 C.3        1 UNL1     0.0332
     57 C         -1.586127   2.19845   3.272757 C.3        1 UNL1     -0.0567
     58 C         1.845955   7.196773   -1.181338 C.3        1 UNL1     0.0210
     59 C         -1.152374   5.565005   2.94869 C.3        1 UNL1     0.0372
     60 C         0.645482   5.211527   0.590632 C.2        1 UNL1     -0.0208
     61 C         1.558245   5.646271   1.460464 C.2        1 UNL1     0.0882
     62 H         4.691618   2.731847   0.581024 H        1 UNL1     0.0365
     63 H         6.338434   3.607521   -0.250492 H        1 UNL1     0.0576
     64 H         8.344066   1.488595   -1.242646 H        1 UNL1     0.0615
     65 H         8.277522   4.60606   -1.429314 H        1 UNL1     0.0622
     66 H         -1.428114   5.32945   0.510425 H        1 UNL1     0.0645
     67 H         -1.85431   3.632205   -0.688709 H        1 UNL1     0.0362
     68 H         -2.537173   2.498228   1.061654 H        1 UNL1     0.0741
     69 H         -1.196659   0.518633   2.206475 H        1 UNL1     0.0359
     70 H         0.907655   0.723159   2.934172 H        1 UNL1     0.0600
     71 H         1.799091   -0.406146   1.310989 H        1 UNL1     0.0348
     72 H         3.357631   1.465456   1.300828 H        1 UNL1     0.0602
     73 H         0.763736   5.409093   -0.44582 H        1 UNL1     0.0628
     74 H         1.540328   5.435258   2.530225 H        1 UNL1     0.1022
     75 H         10.957434   2.252708   -3.427284 H        1 UNL1     0.0279
     76 H         10.799954   3.441216   -4.658522 H        1 UNL1     0.0279
     77 H         11.918284   3.662423   -3.252925 H        1 UNL1     0.0279
     78 H         9.068918   4.804655   -5.016374 H        1 UNL1     0.1553
     79 H         7.789879   3.333048   -4.663309 H        1 UNL1     0.1484
     80 H         4.040549   2.730886   -4.802659 H        1 UNL1     0.0317
     81 H         4.775698   4.258564   -5.267073 H        1 UNL1     0.0317
     82 H         6.687947   3.068992   -6.372482 H        1 UNL1     0.0428
     83 H         5.132221   2.593387   -7.016858 H        1 UNL1     0.0428
     84 H         6.909737   -0.044554   -4.191111 H        1 UNL1     0.0428
     85 H         7.819944   1.366366   -4.603362 H        1 UNL1     0.0428
     86 H         6.526877   1.438046   -2.47083 H        1 UNL1     0.0317
     87 H         5.031196   1.211358   -3.254348 H        1 UNL1     0.0317
     88 H         7.267842   0.882068   -7.376198 H        1 UNL1     0.0429
     89 H         6.903782   -0.605707   -6.498577 H        1 UNL1     0.0429
     90 H         4.363318   0.198136   -7.300241 H        1 UNL1     0.0308
     91 H         6.292719   1.052213   -9.537045 H        1 UNL1     0.0233
     92 H         4.524194   0.899339   -9.693391 H        1 UNL1     0.0233
     93 H         5.215149   2.130489   -8.65828 H        1 UNL1     0.0233
     94 H         4.659505   -1.472303   -9.165039 H        1 UNL1     0.0233
     95 H         6.359987   -1.587528   -8.686069 H        1 UNL1     0.0233
     96 H         5.080798   -2.047183   -7.538731 H        1 UNL1     0.0233
     97 H         4.145594   10.520869   -0.086519 H        1 UNL1     0.0280
     98 H         5.751901   11.140427   -0.356909 H        1 UNL1     0.0280
     99 H         4.565873   11.13561   -1.695956 H        1 UNL1     0.0280
     100 H         6.691018   10.720892   -3.007913 H        1 UNL1     0.2922
     101 H         4.700113   0.883935   2.436494 H        1 UNL1     0.0236
     102 H         6.013955   2.122608   2.511113 H        1 UNL1     0.0236
     103 H         6.319247   0.514714   1.930622 H        1 UNL1     0.0236
     104 H         4.33118   -0.56004   1.276107 H        1 UNL1     0.2098
     105 H         0.709651   1.282256   -0.92898 H        1 UNL1     0.0234
     106 H         1.291476   -0.404648   -1.012251 H        1 UNL1     0.0234
     107 H         0.0   -0.0   0.0 H        1 UNL1     0.0234
     108 H         1.198435   3.259923   1.753125 H        1 UNL1     0.2098
     109 H         1.080457   3.048318   -0.849043 H        1 UNL1     0.0234
     110 H         -0.176657   2.335307   -1.909269 H        1 UNL1     0.0234
     111 H         0.07734   4.045156   -1.882011 H        1 UNL1     0.0234
     112 H         -3.570913   -1.529601   1.445884 H        1 UNL1     0.0342
     113 H         -3.196888   0.095006   2.123375 H        1 UNL1     0.0342
     114 H         -4.404932   -0.084416   0.848068 H        1 UNL1     0.0342
     115 H         -2.650363   1.930237   3.324268 H        1 UNL1     0.0234
     116 H         -1.134929   1.937501   4.232119 H        1 UNL1     0.0234
     117 H         -1.646339   3.298777   3.212788 H        1 UNL1     0.0234
     118 H         0.944863   7.683742   -0.769147 H        1 UNL1     0.0309
     119 H         2.215704   7.784947   -2.027234 H        1 UNL1     0.0309
     120 H         1.45731   6.265033   -1.606688 H        1 UNL1     0.0309
     121 H         -0.347946   6.287431   2.813218 H        1 UNL1     0.0524
     122 H         -2.082324   6.031171   2.582741 H        1 UNL1     0.0524
     123 H         -1.268425   5.326399   4.00211 H        1 UNL1     0.0524
@<TRIPOS>BOND
     1     1     2    1
     2     1    42    1
     3     2     3    2
     4     3     4    1
     5     4     5    2
     6     5     7    1
     7     6    75    1
     8     6    76    1
     9     6    77    1
    10     7     9   am
    11     9    10    1
    12    10    11    2
    13    10    43    1
    14    11    14    1
    15    11    15    1
    16    12    13   ar
    17    12    27   ar
    18    12    43    1
    19    13    14    1
    20    13    30   ar
    21    14    17    2
    22    15    16    1
    23    16    17    1
    24    16    18    1
    25    16    22    1
    26    18    19    1
    27    19    20    1
    28    20    21    1
    29    21    22    1
    30    23    24    1
    31    23    88    1
    32    23    89    1
    33    24    25    1
    34    24    26    1
    35    24    90    1
    36    25    91    1
    37    25    92    1
    38    25    93    1
    39    26    94    1
    40    26    95    1
    41    26    96    1
    42    27    28   ar
    43    28    29   ar
    44    29    30   ar
    45    29    31    1
    46    30    33    1
    47    31    32    1
    48    32    33    1
    49    32    35    1
    50    34    97    1
    51    34    98    1
    52    34    99    1
    53    35    61    1
    54    36    37    1
    55    36    60    1
    56    37    38    1
    57    38    39    1
    58    39    40    1
    59    40    41    1
    60    41    42    1
    61    45   100    1
    62    47   101    1
    63    47   102    1
    64    47   103    1
    65    48   104    1
    66    49   105    1
    67    49   106    1
    68    49   107    1
    69    50   108    1
    70    51    59    1
    71    52   109    1
    72    52   110    1
    73    52   111    1
    74    53    54    1
    75    54    55    2
    76    54    56    1
    77    56   112    1
    78    56   113    1
    79    56   114    1
    80    57   115    1
    81    57   116    1
    82    57   117    1
    83    58   118    1
    84    58   119    1
    85    58   120    1
    86    59   121    1
    87    59   122    1
    88    59   123    1
    89    60    61    2
    90     1    47    1
    91     1    62    1
    92     2    63    1
    93     3    64    1
    94     4    65    1
    95     5     6    1
    96     7     8    2
    97     9    78    1
    98    15    79    1
    99    18    80    1
   100    18    81    1
   101    19    82    1
   102    19    83    1
   103    20    23    1
   104    21    84    1
   105    21    85    1
   106    22    86    1
   107    22    87    1
   108    27    45    1
   109    28    34    1
   110    32    58    1
   111    33    46    2
   112    36    51    1
   113    36    66    1
   114    37    52    1
   115    37    67    1
   116    38    53    1
   117    38    68    1
   118    42    48    1
   119    42    72    1
   120    43    44    2
   121    60    73    1
   122    61    74    1
   123    39    69    1
   124    39    57    1
   125    40    70    1
   126    40    50    1
   127    41    71    1
   128    41    49    1
