@<TRIPOS>MOLECULE
*****
 123 128 0 0 0
SMALL
GASTEIGER

@<TRIPOS>ATOM
     1 C         2.283974   1.446314   -4.764808 C.3        1 UNL1     0.0009
     2 C         3.776585   1.306856   -5.855541 C.2        1 UNL1     -0.0787
     3 C         4.998481   1.869877   -6.390352 C.2        1 UNL1     -0.0649
     4 C         6.140332   1.118577   -7.389393 C.2        1 UNL1     -0.0542
     5 C         7.477684   1.154596   -7.855516 C.2        1 UNL1     0.0115
     6 C         8.773824   2.01026   -7.889901 C.3        1 UNL1     -0.0348
     7 C         8.101926   -0.162901   -8.527462 C.2        1 UNL1     0.2441
     8 O         8.227138   -0.297525   -9.736894 O.2        1 UNL1     -0.2702
     9 N         8.7336   -1.039763   -7.628433 N.am        1 UNL1     -0.2772
     10 C         7.82441   -1.933028   -7.11 C.2        1 UNL1     0.1049
     11 C         7.106924   -1.505543   -6.08692 C.2        1 UNL1     0.0801
     12 C         6.008841   -3.522789   -7.768563 C.ar        1 UNL1     0.0753
     13 C         5.196098   -2.881038   -6.780529 C.ar        1 UNL1     0.0305
     14 C         5.762715   -1.939176   -5.817776 C.2        1 UNL1     0.0924
     15 N         7.257539   -0.40902   -5.324371 N.pl3        1 UNL1     -0.3170
     16 C         6.318463   -0.497059   -4.237798 C.3        1 UNL1     0.1275
     17 N         5.186737   -1.333321   -4.783312 N.2        1 UNL1     -0.2557
     18 C         6.972374   -1.332814   -3.141616 C.3        1 UNL1     0.0016
     19 C         8.302216   -0.695272   -2.771956 C.3        1 UNL1     0.0026
     20 N         8.057735   0.666487   -2.317128 N.3        1 UNL1     -0.3018
     21 C         7.375444   1.531202   -3.282072 C.3        1 UNL1     0.0026
     22 C         6.040222   0.873987   -3.635831 C.3        1 UNL1     0.0016
     23 C         9.208203   1.257791   -1.66335 C.3        1 UNL1     0.0012
     24 C         9.454554   0.591792   -0.300444 C.3        1 UNL1     -0.0339
     25 C         10.004772   1.596492   0.725174 C.3        1 UNL1     -0.0615
     26 C         8.180009   -0.070119   0.19371 C.3        1 UNL1     -0.0615
     27 C         5.487059   -4.508303   -8.603203 C.ar        1 UNL1     0.1347
     28 C         4.182954   -4.962152   -8.517279 C.ar        1 UNL1     0.0342
     29 C         3.38814   -4.281728   -7.570465 C.ar        1 UNL1     0.1435
     30 C         3.887552   -3.267596   -6.752331 C.ar        1 UNL1     0.0774
     31 O         2.12814   -4.680874   -7.291022 O.3        1 UNL1     -0.4436
     32 C         1.837496   -4.095848   -6.012686 C.3        1 UNL1     0.3143
     33 C         2.774955   -2.910949   -5.896936 C.2        1 UNL1     0.2504
     34 C         3.626426   -6.180105   -9.200629 C.3        1 UNL1     -0.0327
     35 O         0.506235   -3.569765   -6.077755 O.2        1 UNL1     -0.4528
     36 C         -0.875957   -3.796616   -2.549842 C.3        1 UNL1     0.0854
     37 C         -0.306251   -3.179294   -1.214974 C.3        1 UNL1     0.0236
     38 C         -1.335778   -2.254438   -0.404751 C.3        1 UNL1     0.1131
     39 C         -2.104147   -1.092183   -1.153777 C.3        1 UNL1     0.0200
     40 C         -1.298379   -0.100797   -2.226313 C.3        1 UNL1     0.0661
     41 C         0.167116   0.700536   -1.930005 C.3        1 UNL1     0.0091
     42 C         1.53536   1.13916   -3.070584 C.3        1 UNL1     0.0661
     43 C         7.44898   -3.16768   -7.815012 C.2        1 UNL1     0.2131
     44 O         8.303304   -3.88377   -8.304995 O.2        1 UNL1     -0.2851
     45 O         6.33299   -5.050278   -9.568657 O.3        1 UNL1     -0.5056
     46 O         2.626628   -1.892178   -5.259787 O.2        1 UNL1     -0.2836
     47 C         1.233871   2.392793   -5.406247 C.3        1 UNL1     -0.0566
     48 O         1.641975   2.537192   -2.587617 O.3        1 UNL1     -0.3909
     49 C         0.799473   0.117165   -0.686101 C.3        1 UNL1     -0.0577
     50 O         -1.285636   -0.668294   -3.520727 O.3        1 UNL1     -0.3910
     51 O         -2.14227   -3.327281   -2.954324 O.3        1 UNL1     -0.3753
     52 C         1.210864   -2.822053   -1.340227 C.3        1 UNL1     -0.0564
     53 O         -0.907328   -1.971581   1.005479 O.3        1 UNL1     -0.4608
     54 C         -1.084039   -0.784681   1.667273 C.2        1 UNL1     0.3042
     55 O         -0.238862   0.08296   1.883406 O.2        1 UNL1     -0.2512
     56 C         -2.500677   -0.546164   2.106543 C.3        1 UNL1     0.0332
     57 C         -3.531302   -1.663697   -1.595109 C.3        1 UNL1     -0.0567
     58 C         2.230587   -5.148626   -4.950298 C.3        1 UNL1     0.0210
     59 C         -2.238454   -2.975127   -4.333672 C.3        1 UNL1     0.0372
     60 C         0.022536   -3.679283   -3.730564 C.2        1 UNL1     -0.0208
     61 C         -0.243713   -3.320395   -4.987168 C.2        1 UNL1     0.0882
     62 H         2.002468   0.42604   -5.052047 H        1 UNL1     0.0365
     63 H         3.588967   0.343951   -6.335212 H        1 UNL1     0.0576
     64 H         5.386316   2.830093   -6.042967 H        1 UNL1     0.0615
     65 H         5.627499   0.219118   -7.740758 H        1 UNL1     0.0622
     66 H         -0.961395   -4.8725   -2.341949 H        1 UNL1     0.0645
     67 H         -0.210485   -4.046123   -0.538219 H        1 UNL1     0.0362
     68 H         -2.104754   -3.003762   -0.162447 H        1 UNL1     0.0741
     69 H         -2.478075   -0.391991   -0.418714 H        1 UNL1     0.0359
     70 H         -2.023128   0.732762   -2.296868 H        1 UNL1     0.0600
     71 H         -0.215082   1.666838   -1.546414 H        1 UNL1     0.0348
     72 H         0.657104   0.95644   -3.706662 H        1 UNL1     0.0602
     73 H         0.980905   -4.061017   -3.479454 H        1 UNL1     0.0628
     74 H         -1.18005   -2.866616   -5.313657 H        1 UNL1     0.1022
     75 H         8.558535   3.032207   -8.285263 H        1 UNL1     0.0279
     76 H         9.239888   2.223605   -6.930559 H        1 UNL1     0.0279
     77 H         9.506107   1.643596   -8.62408 H        1 UNL1     0.0279
     78 H         9.121304   -0.510744   -6.850037 H        1 UNL1     0.1553
     79 H         8.111612   0.114262   -5.26381 H        1 UNL1     0.1484
     80 H         6.297668   -1.381135   -2.278364 H        1 UNL1     0.0317
     81 H         7.127827   -2.364142   -3.476053 H        1 UNL1     0.0317
     82 H         9.009091   -0.71025   -3.61458 H        1 UNL1     0.0428
     83 H         8.752253   -1.308039   -1.990269 H        1 UNL1     0.0428
     84 H         7.132792   2.522807   -2.887545 H        1 UNL1     0.0428
     85 H         8.003074   1.739452   -4.159584 H        1 UNL1     0.0428
     86 H         5.51358   1.59289   -4.235676 H        1 UNL1     0.0317
     87 H         5.416101   0.786606   -2.738093 H        1 UNL1     0.0317
     88 H         10.086977   1.088146   -2.299173 H        1 UNL1     0.0429
     89 H         9.092339   2.344188   -1.558034 H        1 UNL1     0.0429
     90 H         10.184286   -0.217373   -0.42274 H        1 UNL1     0.0308
     91 H         9.439346   2.533016   0.707339 H        1 UNL1     0.0233
     92 H         9.971643   1.176701   1.733285 H        1 UNL1     0.0233
     93 H         11.053746   1.854548   0.535712 H        1 UNL1     0.0233
     94 H         8.218006   -0.198306   1.28089 H        1 UNL1     0.0233
     95 H         7.316885   0.558848   -0.041618 H        1 UNL1     0.0233
     96 H         8.036638   -1.052341   -0.265261 H        1 UNL1     0.0233
     97 H         4.249013   -6.502184   -10.030014 H        1 UNL1     0.0280
     98 H         3.560094   -7.04101   -8.522618 H        1 UNL1     0.0280
     99 H         2.619799   -5.956929   -9.590486 H        1 UNL1     0.0280
     100 H         6.798273   -4.414261   -10.083066 H        1 UNL1     0.2922
     101 H         0.546314   2.751808   -4.640721 H        1 UNL1     0.0236
     102 H         0.709373   1.943043   -6.248631 H        1 UNL1     0.0236
     103 H         1.695856   3.305675   -5.81784 H        1 UNL1     0.0236
     104 H         1.188017   2.586201   -1.72362 H        1 UNL1     0.2098
     105 H         1.259266   -0.857245   -0.830764 H        1 UNL1     0.0234
     106 H         1.486689   0.786002   -0.168107 H        1 UNL1     0.0234
     107 H         0.0   0.0   0.0 H        1 UNL1     0.0234
     108 H         -0.622558   -0.179473   -4.045275 H        1 UNL1     0.2098
     109 H         1.829275   -3.703981   -1.558134 H        1 UNL1     0.0234
     110 H         1.409521   -2.042503   -2.083584 H        1 UNL1     0.0234
     111 H         1.607027   -2.405016   -0.404769 H        1 UNL1     0.0234
     112 H         -2.513092   -0.164466   3.131969 H        1 UNL1     0.0342
     113 H         -3.030658   0.125729   1.433101 H        1 UNL1     0.0342
     114 H         -3.028928   -1.509525   2.099368 H        1 UNL1     0.0342
     115 H         -4.310799   -0.890368   -1.555943 H        1 UNL1     0.0234
     116 H         -3.546146   -2.094376   -2.598276 H        1 UNL1     0.0234
     117 H         -3.940007   -2.413808   -0.896371 H        1 UNL1     0.0234
     118 H         3.261165   -5.51779   -5.09394 H        1 UNL1     0.0309
     119 H         2.120226   -4.785006   -3.923749 H        1 UNL1     0.0309
     120 H         1.624724   -6.058942   -5.016324 H        1 UNL1     0.0309
     121 H         -3.032333   -2.235022   -4.430404 H        1 UNL1     0.0524
     122 H         -1.310059   -2.517798   -4.714423 H        1 UNL1     0.0524
     123 H         -2.469592   -3.852924   -4.930448 H        1 UNL1     0.0524
@<TRIPOS>BOND
     1     1     2    1
     2     1    42    1
     3     2     3    2
     4     3     4    1
     5     4     5    2
     6     5     7    1
     7     6    75    1
     8     6    76    1
     9     6    77    1
    10     7     9   am
    11     9    10    1
    12    10    11    2
    13    10    43    1
    14    11    14    1
    15    11    15    1
    16    12    13   ar
    17    12    27   ar
    18    12    43    1
    19    13    14    1
    20    13    30   ar
    21    14    17    2
    22    15    16    1
    23    16    17    1
    24    16    18    1
    25    16    22    1
    26    18    19    1
    27    19    20    1
    28    20    21    1
    29    21    22    1
    30    23    24    1
    31    23    88    1
    32    23    89    1
    33    24    25    1
    34    24    26    1
    35    24    90    1
    36    25    91    1
    37    25    92    1
    38    25    93    1
    39    26    94    1
    40    26    95    1
    41    26    96    1
    42    27    28   ar
    43    28    29   ar
    44    29    30   ar
    45    29    31    1
    46    30    33    1
    47    31    32    1
    48    32    33    1
    49    32    35    1
    50    34    97    1
    51    34    98    1
    52    34    99    1
    53    35    61    1
    54    36    37    1
    55    36    60    1
    56    37    38    1
    57    38    39    1
    58    39    40    1
    59    40    41    1
    60    41    42    1
    61    45   100    1
    62    47   101    1
    63    47   102    1
    64    47   103    1
    65    48   104    1
    66    49   105    1
    67    49   106    1
    68    49   107    1
    69    50   108    1
    70    51    59    1
    71    52   109    1
    72    52   110    1
    73    52   111    1
    74    53    54    1
    75    54    55    2
    76    54    56    1
    77    56   112    1
    78    56   113    1
    79    56   114    1
    80    57   115    1
    81    57   116    1
    82    57   117    1
    83    58   118    1
    84    58   119    1
    85    58   120    1
    86    59   121    1
    87    59   122    1
    88    59   123    1
    89    60    61    2
    90     1    47    1
    91     1    62    1
    92     2    63    1
    93     3    64    1
    94     4    65    1
    95     5     6    1
    96     7     8    2
    97     9    78    1
    98    15    79    1
    99    18    80    1
   100    18    81    1
   101    19    82    1
   102    19    83    1
   103    20    23    1
   104    21    84    1
   105    21    85    1
   106    22    86    1
   107    22    87    1
   108    27    45    1
   109    28    34    1
   110    32    58    1
   111    33    46    2
   112    36    51    1
   113    36    66    1
   114    37    52    1
   115    37    67    1
   116    38    53    1
   117    38    68    1
   118    42    48    1
   119    42    72    1
   120    43    44    2
   121    60    73    1
   122    61    74    1
   123    39    69    1
   124    39    57    1
   125    40    70    1
   126    40    50    1
   127    41    71    1
   128    41    49    1
