@<TRIPOS>MOLECULE
*****
 123 128 0 0 0
SMALL
GASTEIGER

@<TRIPOS>ATOM
     1 C         5.167307   1.747705   0.493696 C.3        1 UNL1     0.0009
     2 C         6.604417   2.553898   -0.355895 C.2        1 UNL1     -0.0787
     3 C         7.8865   2.45575   -1.021235 C.2        1 UNL1     -0.0649
     4 C         8.764413   3.691018   -1.776046 C.2        1 UNL1     -0.0542
     5 C         9.784801   3.983853   -2.714199 C.2        1 UNL1     0.0115
     6 C         10.913179   3.358553   -3.579697 C.3        1 UNL1     -0.0348
     7 C         9.880598   5.467331   -3.320093 C.2        1 UNL1     0.2441
     8 O         10.704498   6.288688   -2.941825 O.2        1 UNL1     -0.2702
     9 N         9.130801   5.674885   -4.490938 N.am        1 UNL1     -0.2772
     10 C         7.848049   6.061665   -4.177458 C.2        1 UNL1     0.1049
     11 C         7.001998   5.090285   -3.886185 C.2        1 UNL1     0.0801
     12 C         6.549466   7.66799   -2.766524 C.ar        1 UNL1     0.0753
     13 C         5.790065   6.540032   -2.319728 C.ar        1 UNL1     0.0305
     14 C         5.906984   5.234563   -2.965585 C.2        1 UNL1     0.0924
     15 N         7.124441   3.761348   -4.045753 N.pl3        1 UNL1     -0.3170
     16 C         5.854374   3.162275   -3.732233 C.3        1 UNL1     0.1275
     17 N         5.217814   4.117237   -2.75215 N.2        1 UNL1     -0.2557
     18 C         5.001956   3.221987   -4.996163 C.3        1 UNL1     0.0016
     19 C         5.757093   2.538205   -6.12479 C.3        1 UNL1     0.0026
     20 N         6.026868   1.159906   -5.739379 N.3        1 UNL1     -0.3018
     21 C         6.789786   0.998896   -4.499863 C.3        1 UNL1     0.0026
     22 C         6.010788   1.689113   -3.378856 C.3        1 UNL1     0.0016
     23 C         6.471602   0.340724   -6.849243 C.3        1 UNL1     0.0012
     24 C         5.31644   0.091832   -7.831795 C.3        1 UNL1     -0.0339
     25 C         5.342555   1.09546   -8.996315 C.3        1 UNL1     -0.0615
     26 C         5.35575   -1.342688   -8.329177 C.3        1 UNL1     -0.0615
     27 C         6.344847   8.935509   -2.226482 C.ar        1 UNL1     0.1347
     28 C         5.385517   9.20485   -1.266695 C.ar        1 UNL1     0.0342
     29 C         4.683606   8.070343   -0.806936 C.ar        1 UNL1     0.1435
     30 C         4.902994   6.788474   -1.312803 C.ar        1 UNL1     0.0774
     31 O         3.642352   8.183759   0.046255 O.3        1 UNL1     -0.4436
     32 C         2.920508   6.951119   -0.096621 C.3        1 UNL1     0.3143
     33 C         3.933808   5.958044   -0.628822 C.2        1 UNL1     0.2504
     34 C         4.93877   10.570861   -0.825638 C.3        1 UNL1     -0.0327
     35 O         2.559364   6.513974   1.219332 O.2        1 UNL1     -0.4528
     36 C         -0.683887   4.582503   0.820794 C.3        1 UNL1     0.0854
     37 C         -0.989119   3.322317   -0.077141 C.3        1 UNL1     0.0236
     38 C         -1.59015   2.061075   0.710116 C.3        1 UNL1     0.1131
     39 C         -0.864907   1.529516   2.011553 C.3        1 UNL1     0.0200
     40 C         0.796246   1.383667   2.053205 C.3        1 UNL1     0.0661
     41 C         1.755861   0.615117   0.88441 C.3        1 UNL1     0.0091
     42 C         3.463694   0.977592   0.321098 C.3        1 UNL1     0.0661
     43 C         7.499836   7.460551   -3.88725 C.2        1 UNL1     0.2131
     44 O         7.900108   8.358833   -4.605309 O.2        1 UNL1     -0.2851
     45 O         7.157442   9.97065   -2.684315 O.3        1 UNL1     -0.5056
     46 O         3.949545   4.754457   -0.498496 O.2        1 UNL1     -0.2836
     47 C         5.56313   1.317613   1.931864 C.3        1 UNL1     -0.0566
     48 O         3.911985   -0.433622   0.402494 O.3        1 UNL1     -0.3909
     49 C         0.922033   0.383141   -0.355917 C.3        1 UNL1     -0.0577
     50 O         1.396531   2.601276   2.446664 O.3        1 UNL1     -0.3910
     51 O         -0.808457   4.392326   2.212105 O.3        1 UNL1     -0.3753
     52 C         0.055679   3.162098   -1.22939 C.3        1 UNL1     -0.0564
     53 O         -2.192645   1.022536   -0.190307 O.3        1 UNL1     -0.4608
     54 C         -2.414899   -0.287644   0.144299 C.2        1 UNL1     0.3042
     55 O         -1.842522   -1.28035   -0.30376 O.2        1 UNL1     -0.2512
     56 C         -3.444515   -0.466396   1.223489 C.3        1 UNL1     0.0332
     57 C         -1.586222   2.198163   3.272819 C.3        1 UNL1     -0.0567
     58 C         1.845703   7.196805   -1.181039 C.3        1 UNL1     0.0210
     59 C         -1.152605   5.564749   2.948889 C.3        1 UNL1     0.0372
     60 C         0.645293   5.21144   0.590838 C.2        1 UNL1     -0.0208
     61 C         1.558027   5.646187   1.460698 C.2        1 UNL1     0.0882
     62 H         4.691533   2.731929   0.58118 H        1 UNL1     0.0365
     63 H         6.338322   3.607705   -0.250282 H        1 UNL1     0.0576
     64 H         8.344054   1.488902   -1.242497 H        1 UNL1     0.0615
     65 H         8.277381   4.606371   -1.429042 H        1 UNL1     0.0622
     66 H         -1.428307   5.329279   0.510612 H        1 UNL1     0.0645
     67 H         -1.854418   3.632063   -0.688594 H        1 UNL1     0.0362
     68 H         -2.537254   2.497989   1.061716 H        1 UNL1     0.0741
     69 H         -1.196671   0.518405   2.206475 H        1 UNL1     0.0359
     70 H         0.907626   0.72299   2.934205 H        1 UNL1     0.0600
     71 H         1.799128   -0.406214   1.310987 H        1 UNL1     0.0348
     72 H         3.35759   1.465454   1.300919 H        1 UNL1     0.0602
     73 H         0.763551   5.409051   -0.445604 H        1 UNL1     0.0628
     74 H         1.540107   5.435131   2.530451 H        1 UNL1     0.1022
     75 H         10.957415   2.253209   -3.427074 H        1 UNL1     0.0279
     76 H         10.799901   3.44176   -4.658267 H        1 UNL1     0.0279
     77 H         11.918205   3.662958   -3.252648 H        1 UNL1     0.0279
     78 H         9.068811   4.805141   -5.016085 H        1 UNL1     0.1553
     79 H         7.789829   3.333466   -4.663093 H        1 UNL1     0.1484
     80 H         4.040526   2.731153   -4.802511 H        1 UNL1     0.0317
     81 H         4.775617   4.25888   -5.266856 H        1 UNL1     0.0317
     82 H         6.687929   3.069432   -6.372289 H        1 UNL1     0.0428
     83 H         5.132231   2.593787   -7.016702 H        1 UNL1     0.0428
     84 H         6.909823   -0.044191   -4.191038 H        1 UNL1     0.0428
     85 H         7.819976   1.366783   -4.603223 H        1 UNL1     0.0428
     86 H         6.526881   1.438325   -2.470704 H        1 UNL1     0.0317
     87 H         5.031218   1.211605   -3.254248 H        1 UNL1     0.0317
     88 H         7.267927   0.882572   -7.376085 H        1 UNL1     0.0429
     89 H         6.903918   -0.605254   -6.498527 H        1 UNL1     0.0429
     90 H         4.36343   0.198515   -7.300189 H        1 UNL1     0.0308
     91 H         6.291636   1.050582   -9.53884 H        1 UNL1     0.0233
     92 H         4.522459   0.901759   -9.691679 H        1 UNL1     0.0233
     93 H         5.21828   2.131231   -8.657836 H        1 UNL1     0.0233
     94 H         4.65971   -1.471838   -9.16505 H        1 UNL1     0.0233
     95 H         6.360191   -1.587012   -8.686063 H        1 UNL1     0.0233
     96 H         5.081007   -2.046765   -7.538759 H        1 UNL1     0.0233
     97 H         4.145191   10.520954   -0.086062 H        1 UNL1     0.0280
     98 H         5.751476   11.14059   -0.356409 H        1 UNL1     0.0280
     99 H         4.565464   11.135776   -1.69547 H        1 UNL1     0.0280
     100 H         6.69064   10.721198   -3.007418 H        1 UNL1     0.2922
     101 H         4.700083   0.883944   2.436578 H        1 UNL1     0.0236
     102 H         6.013872   2.122669   2.511261 H        1 UNL1     0.0236
     103 H         6.319238   0.514811   1.93071 H        1 UNL1     0.0236
     104 H         4.331224   -0.56   1.276129 H        1 UNL1     0.2098
     105 H         0.709723   1.282217   -0.928978 H        1 UNL1     0.0234
     106 H         1.291488   -0.404709   -1.012212 H        1 UNL1     0.0234
     107 H         0.0   -0.0   0.0 H        1 UNL1     0.0234
     108 H         1.198313   3.259812   1.753261 H        1 UNL1     0.2098
     109 H         1.080375   3.048306   -0.848916 H        1 UNL1     0.0234
     110 H         -0.176697   2.335283   -1.909186 H        1 UNL1     0.0234
     111 H         0.077229   4.045142   -1.881858 H        1 UNL1     0.0234
     112 H         -3.567545   -1.530271   1.447939 H        1 UNL1     0.0342
     113 H         -3.19762   0.096548   2.122367 H        1 UNL1     0.0342
     114 H         -4.405072   -0.088299   0.847274 H        1 UNL1     0.0342
     115 H         -2.655901   1.95006   3.310501 H        1 UNL1     0.0234
     116 H         -1.150112   1.917982   4.233733 H        1 UNL1     0.0234
     117 H         -1.624613   3.300043   3.224574 H        1 UNL1     0.0234
     118 H         0.944586   7.683721   -0.76884 H        1 UNL1     0.0309
     119 H         2.215438   7.785028   -2.026907 H        1 UNL1     0.0309
     120 H         1.457102   6.265066   -1.60643 H        1 UNL1     0.0309
     121 H         -0.348206   6.287214   2.813455 H        1 UNL1     0.0524
     122 H         -2.082571   6.030891   2.582948 H        1 UNL1     0.0524
     123 H         -1.268659   5.326097   4.002298 H        1 UNL1     0.0524
@<TRIPOS>BOND
     1     1     2    1
     2     1    42    1
     3     2     3    2
     4     3     4    1
     5     4     5    2
     6     5     7    1
     7     6    75    1
     8     6    76    1
     9     6    77    1
    10     7     9   am
    11     9    10    1
    12    10    11    2
    13    10    43    1
    14    11    14    1
    15    11    15    1
    16    12    13   ar
    17    12    27   ar
    18    12    43    1
    19    13    14    1
    20    13    30   ar
    21    14    17    2
    22    15    16    1
    23    16    17    1
    24    16    18    1
    25    16    22    1
    26    18    19    1
    27    19    20    1
    28    20    21    1
    29    21    22    1
    30    23    24    1
    31    23    88    1
    32    23    89    1
    33    24    25    1
    34    24    26    1
    35    24    90    1
    36    25    91    1
    37    25    92    1
    38    25    93    1
    39    26    94    1
    40    26    95    1
    41    26    96    1
    42    27    28   ar
    43    28    29   ar
    44    29    30   ar
    45    29    31    1
    46    30    33    1
    47    31    32    1
    48    32    33    1
    49    32    35    1
    50    34    97    1
    51    34    98    1
    52    34    99    1
    53    35    61    1
    54    36    37    1
    55    36    60    1
    56    37    38    1
    57    38    39    1
    58    39    40    1
    59    40    41    1
    60    41    42    1
    61    45   100    1
    62    47   101    1
    63    47   102    1
    64    47   103    1
    65    48   104    1
    66    49   105    1
    67    49   106    1
    68    49   107    1
    69    50   108    1
    70    51    59    1
    71    52   109    1
    72    52   110    1
    73    52   111    1
    74    53    54    1
    75    54    55    2
    76    54    56    1
    77    56   112    1
    78    56   113    1
    79    56   114    1
    80    57   115    1
    81    57   116    1
    82    57   117    1
    83    58   118    1
    84    58   119    1
    85    58   120    1
    86    59   121    1
    87    59   122    1
    88    59   123    1
    89    60    61    2
    90     1    47    1
    91     1    62    1
    92     2    63    1
    93     3    64    1
    94     4    65    1
    95     5     6    1
    96     7     8    2
    97     9    78    1
    98    15    79    1
    99    18    80    1
   100    18    81    1
   101    19    82    1
   102    19    83    1
   103    20    23    1
   104    21    84    1
   105    21    85    1
   106    22    86    1
   107    22    87    1
   108    27    45    1
   109    28    34    1
   110    32    58    1
   111    33    46    2
   112    36    51    1
   113    36    66    1
   114    37    52    1
   115    37    67    1
   116    38    53    1
   117    38    68    1
   118    42    48    1
   119    42    72    1
   120    43    44    2
   121    60    73    1
   122    61    74    1
   123    39    69    1
   124    39    57    1
   125    40    70    1
   126    40    50    1
   127    41    71    1
   128    41    49    1
