@<TRIPOS>MOLECULE
*****
 123 128 0 0 0
SMALL
GASTEIGER

@<TRIPOS>ATOM
     1 C         5.168201   1.746945   0.486978 C.3        1 UNL1     0.0009
     2 C         6.604446   2.552596   -0.364588 C.2        1 UNL1     -0.0787
     3 C         7.885721   2.453996   -1.031416 C.2        1 UNL1     -0.0649
     4 C         8.762958   3.688854   -1.787682 C.2        1 UNL1     -0.0542
     5 C         9.782284   3.981193   -2.727144 C.2        1 UNL1     0.0115
     6 C         10.909522   3.355401   -3.59377 C.3        1 UNL1     -0.0348
     7 C         9.877627   5.464451   -3.333648 C.2        1 UNL1     0.2441
     8 O         10.702122   6.285787   -2.956632 O.2        1 UNL1     -0.2702
     9 N         9.126478   5.671747   -4.503671 N.am        1 UNL1     -0.2772
     10 C         7.844168   6.058862   -4.188799 C.2        1 UNL1     0.1049
     11 C         6.99829   5.087731   -3.896197 C.2        1 UNL1     0.0801
     12 C         6.547547   7.665892   -2.776863 C.ar        1 UNL1     0.0753
     13 C         5.788475   6.538218   -2.328788 C.ar        1 UNL1     0.0305
     14 C         5.904395   5.232513   -2.974346 C.2        1 UNL1     0.0924
     15 N         7.120306   3.758718   -4.055464 N.pl3        1 UNL1     -0.3170
     16 C         5.850505   3.159978   -3.740237 C.3        1 UNL1     0.1275
     17 N         5.215279   4.115382   -2.759719 N.2        1 UNL1     -0.2557
     18 C         4.996598   3.219419   -5.003174 C.3        1 UNL1     0.0016
     19 C         5.750273   2.535124   -6.132468 C.3        1 UNL1     0.0026
     20 N         6.02026   1.156906   -5.746916 N.3        1 UNL1     -0.3018
     21 C         6.784619   0.996174   -4.508252 C.3        1 UNL1     0.0026
     22 C         6.007075   1.686906   -3.386552 C.3        1 UNL1     0.0016
     23 C         6.463529   0.337273   -6.857032 C.3        1 UNL1     0.0012
     24 C         5.307157   0.088259   -7.838129 C.3        1 UNL1     -0.0339
     25 C         5.342211   1.080459   -9.012168 C.3        1 UNL1     -0.0615
     26 C         5.335338   -1.351223   -8.321741 C.3        1 UNL1     -0.0615
     27 C         6.343795   8.933628   -2.237003 C.ar        1 UNL1     0.1347
     28 C         5.385653   9.203462   -1.276168 C.ar        1 UNL1     0.0342
     29 C         4.684086   8.069234   -0.815197 C.ar        1 UNL1     0.1435
     30 C         4.902645   6.787157   -1.320894 C.ar        1 UNL1     0.0774
     31 O         3.643866   8.183122   0.039191 O.3        1 UNL1     -0.4436
     32 C         2.921632   6.950564   -0.102415 C.3        1 UNL1     0.3143
     33 C         3.934123   5.957129   -0.635485 C.2        1 UNL1     0.2504
     34 C         4.939674   10.5697   -0.835039 C.3        1 UNL1     -0.0327
     35 O         2.561973   6.513923   1.214112 O.2        1 UNL1     -0.4528
     36 C         -0.682094   4.5829   0.82007 C.3        1 UNL1     0.0854
     37 C         -0.988617   3.322468   -0.07708 C.3        1 UNL1     0.0236
     38 C         -1.588938   2.061597   0.711313 C.3        1 UNL1     0.1131
     39 C         -0.862246   1.530344   2.012066 C.3        1 UNL1     0.0200
     40 C         0.79893   1.384211   2.051795 C.3        1 UNL1     0.0661
     41 C         1.757019   0.615099   0.88212 C.3        1 UNL1     0.0091
     42 C         3.464247   0.97708   0.31666 C.3        1 UNL1     0.0661
     43 C         7.496549   7.457907   -3.898646 C.2        1 UNL1     0.2131
     44 O         7.896129   8.355877   -4.617481 O.2        1 UNL1     -0.2851
     45 O         7.156031   9.96847   -2.696147 O.3        1 UNL1     -0.5056
     46 O         3.9498   4.753583   -0.504775 O.2        1 UNL1     -0.2836
     47 C         5.565654   1.317264   1.924819 C.3        1 UNL1     -0.0566
     48 O         3.912383   -0.434187   0.397997 O.3        1 UNL1     -0.3909
     49 C         0.921679   0.382857   -0.35714 C.3        1 UNL1     -0.0577
     50 O         1.399898   2.601845   2.444133 O.3        1 UNL1     -0.3910
     51 O         -0.805046   4.393211   2.211591 O.3        1 UNL1     -0.3753
     52 C         0.054784   3.161676   -1.230514 C.3        1 UNL1     -0.0564
     53 O         -2.192687   1.022865   -0.188047 O.3        1 UNL1     -0.4608
     54 C         -2.427266   -0.283818   0.151781 C.2        1 UNL1     0.3042
     55 O         -1.857881   -1.28303   -0.285499 O.2        1 UNL1     -0.2512
     56 C         -3.467919   -0.449252   1.222475 C.3        1 UNL1     0.0332
     57 C         -1.581944   2.199542   3.273962 C.3        1 UNL1     -0.0567
     58 C         1.845585   7.196079   -1.185639 C.3        1 UNL1     0.0210
     59 C         -1.117184   5.572297   2.95199 C.3        1 UNL1     0.0372
     60 C         0.646924   5.211522   0.588326 C.2        1 UNL1     -0.0208
     61 C         1.560768   5.646397   1.456957 C.2        1 UNL1     0.0882
     62 H         4.692707   2.731283   0.574696 H        1 UNL1     0.0365
     63 H         6.338665   3.606486   -0.259012 H        1 UNL1     0.0576
     64 H         8.342839   1.486992   -1.252897 H        1 UNL1     0.0615
     65 H         8.276502   4.604411   -1.440407 H        1 UNL1     0.0622
     66 H         -1.426748   5.329705   0.510522 H        1 UNL1     0.0645
     67 H         -1.854586   3.632164   -0.687609 H        1 UNL1     0.0362
     68 H         -2.535546   2.498798   1.063889 H        1 UNL1     0.0741
     69 H         -1.193959   0.519357   2.207719 H        1 UNL1     0.0359
     70 H         0.911237   0.723809   2.932883 H        1 UNL1     0.0600
     71 H         1.80061   -0.406097   1.308987 H        1 UNL1     0.0348
     72 H         3.359393   1.465288   1.296442 H        1 UNL1     0.0602
     73 H         0.763987   5.408765   -0.448322 H        1 UNL1     0.0628
     74 H         1.544079   5.435702   2.526801 H        1 UNL1     0.1022
     75 H         10.935111   2.246717   -3.462621 H        1 UNL1     0.0279
     76 H         10.808427   3.461529   -4.671539 H        1 UNL1     0.0279
     77 H         11.915789   3.637544   -3.250953 H        1 UNL1     0.0279
     78 H         9.06371   4.801838   -5.028453 H        1 UNL1     0.1553
     79 H         7.784885   3.330511   -4.67345 H        1 UNL1     0.1484
     80 H         4.035311   2.728822   -4.808217 H        1 UNL1     0.0317
     81 H         4.770123   4.256262   -5.273946 H        1 UNL1     0.0317
     82 H         6.680909   3.066102   -6.381249 H        1 UNL1     0.0428
     83 H         5.124363   2.590519   -7.023656 H        1 UNL1     0.0428
     84 H         6.904836   -0.046831   -4.199221 H        1 UNL1     0.0428
     85 H         7.814752   1.363842   -4.612957 H        1 UNL1     0.0428
     86 H         6.524201   1.43633   -2.478929 H        1 UNL1     0.0317
     87 H         5.027569   1.209615   -3.260622 H        1 UNL1     0.0317
     88 H         7.259325   0.878802   -7.385 H        1 UNL1     0.0429
     89 H         6.896093   -0.608665   -6.506512 H        1 UNL1     0.0429
     90 H         4.35463   0.207657   -7.308367 H        1 UNL1     0.0308
     91 H         6.294895   1.029358   -9.547784 H        1 UNL1     0.0233
     92 H         4.526638   0.880796   -9.711156 H        1 UNL1     0.0233
     93 H         5.216738   2.119603   -8.684647 H        1 UNL1     0.0233
     94 H         4.640072   -1.482417   -9.15794 H        1 UNL1     0.0233
     95 H         6.338446   -1.607471   -8.673981 H        1 UNL1     0.0233
     96 H         5.052855   -2.045367   -7.525288 H        1 UNL1     0.0233
     97 H         4.140665   10.520319   -0.101297 H        1 UNL1     0.0280
     98 H         5.750622   11.135958   -0.358623 H        1 UNL1     0.0280
     99 H         4.574246   11.137766   -1.706163 H        1 UNL1     0.0280
     100 H         6.689   10.719779   -3.017142 H        1 UNL1     0.2922
     101 H         4.703129   0.883918   2.430702 H        1 UNL1     0.0236
     102 H         6.017227   2.122433   2.503411 H        1 UNL1     0.0236
     103 H         6.321617   0.514326   1.923037 H        1 UNL1     0.0236
     104 H         4.327256   -0.561921   1.273516 H        1 UNL1     0.2098
     105 H         0.708849   1.281779   -0.930249 H        1 UNL1     0.0234
     106 H         1.290213   -0.405279   -1.013608 H        1 UNL1     0.0234
     107 H         0.0   -0.0   0.0 H        1 UNL1     0.0234
     108 H         1.215991   3.255516   1.742235 H        1 UNL1     0.2098
     109 H         1.081364   3.060218   -0.851632 H        1 UNL1     0.0234
     110 H         -0.171878   2.327061   -1.902663 H        1 UNL1     0.0234
     111 H         0.066921   4.039273   -1.890531 H        1 UNL1     0.0234
     112 H         -3.591424   -1.510077   1.46068 H        1 UNL1     0.0342
     113 H         -3.231547   0.126841   2.115833 H        1 UNL1     0.0342
     114 H         -4.425114   -0.078374   0.830822 H        1 UNL1     0.0342
     115 H         -2.651622   1.951644   3.312997 H        1 UNL1     0.0234
     116 H         -1.144745   1.919604   4.234452 H        1 UNL1     0.0234
     117 H         -1.620196   3.301413   3.225394 H        1 UNL1     0.0234
     118 H         0.944422   7.681885   -0.772234 H        1 UNL1     0.0309
     119 H         2.213995   7.785251   -2.031425 H        1 UNL1     0.0309
     120 H         1.457418   6.264304   -1.611346 H        1 UNL1     0.0309
     121 H         -0.284531   6.26533   2.83472 H        1 UNL1     0.0524
     122 H         -2.023323   6.075282   2.57522 H        1 UNL1     0.0524
     123 H         -1.258697   5.330575   4.001579 H        1 UNL1     0.0524
@<TRIPOS>BOND
     1     1     2    1
     2     1    42    1
     3     2     3    2
     4     3     4    1
     5     4     5    2
     6     5     7    1
     7     6    75    1
     8     6    76    1
     9     6    77    1
    10     7     9   am
    11     9    10    1
    12    10    11    2
    13    10    43    1
    14    11    14    1
    15    11    15    1
    16    12    13   ar
    17    12    27   ar
    18    12    43    1
    19    13    14    1
    20    13    30   ar
    21    14    17    2
    22    15    16    1
    23    16    17    1
    24    16    18    1
    25    16    22    1
    26    18    19    1
    27    19    20    1
    28    20    21    1
    29    21    22    1
    30    23    24    1
    31    23    88    1
    32    23    89    1
    33    24    25    1
    34    24    26    1
    35    24    90    1
    36    25    91    1
    37    25    92    1
    38    25    93    1
    39    26    94    1
    40    26    95    1
    41    26    96    1
    42    27    28   ar
    43    28    29   ar
    44    29    30   ar
    45    29    31    1
    46    30    33    1
    47    31    32    1
    48    32    33    1
    49    32    35    1
    50    34    97    1
    51    34    98    1
    52    34    99    1
    53    35    61    1
    54    36    37    1
    55    36    60    1
    56    37    38    1
    57    38    39    1
    58    39    40    1
    59    40    41    1
    60    41    42    1
    61    45   100    1
    62    47   101    1
    63    47   102    1
    64    47   103    1
    65    48   104    1
    66    49   105    1
    67    49   106    1
    68    49   107    1
    69    50   108    1
    70    51    59    1
    71    52   109    1
    72    52   110    1
    73    52   111    1
    74    53    54    1
    75    54    55    2
    76    54    56    1
    77    56   112    1
    78    56   113    1
    79    56   114    1
    80    57   115    1
    81    57   116    1
    82    57   117    1
    83    58   118    1
    84    58   119    1
    85    58   120    1
    86    59   121    1
    87    59   122    1
    88    59   123    1
    89    60    61    2
    90     1    47    1
    91     1    62    1
    92     2    63    1
    93     3    64    1
    94     4    65    1
    95     5     6    1
    96     7     8    2
    97     9    78    1
    98    15    79    1
    99    18    80    1
   100    18    81    1
   101    19    82    1
   102    19    83    1
   103    20    23    1
   104    21    84    1
   105    21    85    1
   106    22    86    1
   107    22    87    1
   108    27    45    1
   109    28    34    1
   110    32    58    1
   111    33    46    2
   112    36    51    1
   113    36    66    1
   114    37    52    1
   115    37    67    1
   116    38    53    1
   117    38    68    1
   118    42    48    1
   119    42    72    1
   120    43    44    2
   121    60    73    1
   122    61    74    1
   123    39    69    1
   124    39    57    1
   125    40    70    1
   126    40    50    1
   127    41    71    1
   128    41    49    1
