@<TRIPOS>MOLECULE
*****
 123 128 0 0 0
SMALL
GASTEIGER

@<TRIPOS>ATOM
     1 C         3.911653   2.462462   1.017346 C.3        1 UNL1     0.0009
     2 C         5.663665   2.570571   0.420855 C.2        1 UNL1     -0.0787
     3 C         7.018666   2.060913   0.404502 C.2        1 UNL1     -0.0649
     4 C         8.317493   2.588543   -0.544714 C.2        1 UNL1     -0.0542
     5 C         9.585838   2.242363   -1.072482 C.2        1 UNL1     0.0115
     6 C         10.730086   1.193629   -1.007854 C.3        1 UNL1     -0.0348
     7 C         10.16739   3.081969   -2.310968 C.2        1 UNL1     0.2441
     8 O         11.027157   3.943182   -2.185914 O.2        1 UNL1     -0.2702
     9 N         9.815184   2.583857   -3.577454 N.am        1 UNL1     -0.2772
     10 C         8.616168   3.119843   -3.987822 C.2        1 UNL1     0.1049
     11 C         7.5274   2.531867   -3.526204 C.2        1 UNL1     0.0801
     12 C         7.390704   5.287393   -4.227188 C.ar        1 UNL1     0.0753
     13 C         6.307542   4.661715   -3.531563 C.ar        1 UNL1     0.0305
     14 C         6.291903   3.223251   -3.275385 C.2        1 UNL1     0.0924
     15 N         7.384962   1.360291   -2.883048 N.pl3        1 UNL1     -0.3170
     16 C         5.976055   1.099185   -2.752437 C.3        1 UNL1     0.1275
     17 N         5.337874   2.466773   -2.74013 N.2        1 UNL1     -0.2557
     18 C         5.518493   0.429964   -4.044908 C.3        1 UNL1     0.0016
     19 C         6.367715   -0.809444   -4.277886 C.3        1 UNL1     0.0026
     20 N         6.210502   -1.704853   -3.1401 N.3        1 UNL1     -0.3018
     21 C         6.567606   -1.129134   -1.841873 C.3        1 UNL1     0.0026
     22 C         5.699414   0.111719   -1.626414 C.3        1 UNL1     0.0016
     23 C         6.732942   -3.033206   -3.39145 C.3        1 UNL1     0.0012
     24 C         5.800995   -3.808732   -4.335797 C.3        1 UNL1     -0.0339
     25 C         5.996121   -5.327457   -4.196309 C.3        1 UNL1     -0.0615
     26 C         4.357467   -3.40567   -4.08973 C.3        1 UNL1     -0.0615
     27 C         7.343037   6.635618   -4.573797 C.ar        1 UNL1     0.1347
     28 C         6.252856   7.446995   -4.314521 C.ar        1 UNL1     0.0342
     29 C         5.21882   6.8219   -3.585694 C.ar        1 UNL1     0.1435
     30 C         5.268221   5.48173   -3.200047 C.ar        1 UNL1     0.0774
     31 O         4.044418   7.447059   -3.351252 O.3        1 UNL1     -0.4436
     32 C         3.126609   6.38881   -3.037232 C.3        1 UNL1     0.3143
     33 C         3.993231   5.242391   -2.556708 C.2        1 UNL1     0.2504
     34 C         6.025808   8.823962   -4.873547 C.3        1 UNL1     -0.0327
     35 O         2.346313   6.82052   -1.915618 O.2        1 UNL1     -0.4528
     36 C         -1.029401   5.123834   -2.281539 C.3        1 UNL1     0.0854
     37 C         -1.365522   3.586543   -2.387754 C.3        1 UNL1     0.0236
     38 C         -2.418688   3.048583   -1.304617 C.3        1 UNL1     0.1131
     39 C         -2.196454   3.362404   0.229787 C.3        1 UNL1     0.0200
     40 C         -0.680492   3.218497   0.910661 C.3        1 UNL1     0.0661
     41 C         0.352106   1.880737   0.763184 C.3        1 UNL1     0.0091
     42 C         2.18388   1.790396   0.720215 C.3        1 UNL1     0.0661
     43 C         8.528332   4.431656   -4.646446 C.2        1 UNL1     0.2131
     44 O         9.293322   4.723093   -5.547884 O.2        1 UNL1     -0.2851
     45 O         8.458136   7.178174   -5.209111 O.3        1 UNL1     -0.5056
     46 O         3.703276   4.345872   -1.796423 O.2        1 UNL1     -0.2836
     47 C         3.811802   2.948729   2.488249 C.3        1 UNL1     -0.0566
     48 O         2.266079   0.684142   1.704371 O.3        1 UNL1     -0.3909
     49 C         -0.159774   0.989102   -0.346078 C.3        1 UNL1     -0.0577
     50 O         0.054514   4.415683   0.75499 O.3        1 UNL1     -0.3910
     51 O         -1.551655   5.792261   -1.155534 O.3        1 UNL1     -0.3753
     52 C         -0.120402   2.747553   -2.824469 C.3        1 UNL1     -0.0564
     53 O         -2.983392   1.697998   -1.63531 O.3        1 UNL1     -0.4608
     54 C         -2.667466   0.526435   -0.998474 C.2        1 UNL1     0.3042
     55 O         -3.429954   -0.393891   -0.706157 O.2        1 UNL1     -0.2512
     56 C         -1.202801   0.381424   -0.697736 C.3        1 UNL1     0.0332
     57 C         -3.051886   4.666565   0.584151 C.3        1 UNL1     -0.0567
     58 C         2.455318   5.982236   -4.369747 C.3        1 UNL1     0.0210
     59 C         -0.622903   6.634322   -0.474199 C.3        1 UNL1     0.0372
     60 C         0.419951   5.456427   -2.344157 C.2        1 UNL1     -0.0208
     61 C         1.14806   6.291634   -1.601842 C.2        1 UNL1     0.0882
     62 H         3.663586   3.323804   0.385473 H        1 UNL1     0.0365
     63 H         5.623393   3.492432   -0.163115 H        1 UNL1     0.0576
     64 H         7.288392   1.135483   0.918248 H        1 UNL1     0.0615
     65 H         7.975744   3.547212   -0.944269 H        1 UNL1     0.0622
     66 H         -1.4795   5.567555   -3.180743 H        1 UNL1     0.0645
     67 H         -1.948934   3.503552   -3.32119 H        1 UNL1     0.0362
     68 H         -3.301225   3.637293   -1.597996 H        1 UNL1     0.0741
     69 H         -2.7862   2.670002   0.815608 H        1 UNL1     0.0359
     70 H         -0.954103   3.199355   1.982963 H        1 UNL1     0.0600
     71 H         0.05181   1.30492   1.660521 H        1 UNL1     0.0348
     72 H         1.938718   2.764199   1.168454 H        1 UNL1     0.0602
     73 H         0.845489   5.002924   -3.204681 H        1 UNL1     0.0628
     74 H         0.805023   6.750812   -0.674093 H        1 UNL1     0.1022
     75 H         11.493242   1.492343   -0.249304 H        1 UNL1     0.0279
     76 H         10.453792   0.193688   -0.680976 H        1 UNL1     0.0279
     77 H         11.335428   1.167591   -1.925777 H        1 UNL1     0.0279
     78 H         9.698144   1.573971   -3.527369 H        1 UNL1     0.1553
     79 H         8.074272   0.631148   -2.894638 H        1 UNL1     0.1484
     80 H         4.454943   0.17644   -3.959153 H        1 UNL1     0.0317
     81 H         5.60979   1.115613   -4.894144 H        1 UNL1     0.0317
     82 H         7.425658   -0.554016   -4.437342 H        1 UNL1     0.0428
     83 H         6.02594   -1.270114   -5.20526 H        1 UNL1     0.0428
     84 H         6.365175   -1.794127   -0.996523 H        1 UNL1     0.0428
     85 H         7.644528   -0.923955   -1.768001 H        1 UNL1     0.0428
     86 H         5.89092   0.427492   -0.617652 H        1 UNL1     0.0317
     87 H         4.639821   -0.171094   -1.606994 H        1 UNL1     0.0317
     88 H         7.71284   -2.928884   -3.875405 H        1 UNL1     0.0429
     89 H         6.893697   -3.582309   -2.454745 H        1 UNL1     0.0429
     90 H         6.019608   -3.522245   -5.371338 H        1 UNL1     0.0308
     91 H         5.077865   -5.870421   -4.439411 H        1 UNL1     0.0233
     92 H         6.801374   -5.674916   -4.847806 H        1 UNL1     0.0233
     93 H         6.278778   -5.620408   -3.177918 H        1 UNL1     0.0233
     94 H         3.68631   -4.004446   -4.71491 H        1 UNL1     0.0233
     95 H         4.092756   -3.584317   -3.043797 H        1 UNL1     0.0233
     96 H         4.193354   -2.349234   -4.319901 H        1 UNL1     0.0233
     97 H         5.100519   8.886908   -5.438443 H        1 UNL1     0.0280
     98 H         5.948455   9.583362   -4.084506 H        1 UNL1     0.0280
     99 H         6.858817   9.092111   -5.543836 H        1 UNL1     0.0280
     100 H         9.278776   6.988582   -4.789317 H        1 UNL1     0.2922
     101 H         4.086263   2.138077   3.162913 H        1 UNL1     0.0236
     102 H         2.839279   3.373875   2.734081 H        1 UNL1     0.0236
     103 H         4.533774   3.752731   2.708545 H        1 UNL1     0.0236
     104 H         2.468791   1.07853   2.575197 H        1 UNL1     0.2098
     105 H         -1.22017   1.100113   -0.558324 H        1 UNL1     0.0234
     106 H         0.417135   1.034511   -1.26968 H        1 UNL1     0.0234
     107 H         0.0   0.0   0.0 H        1 UNL1     0.0234
     108 H         0.842311   4.204656   0.217764 H        1 UNL1     0.2098
     109 H         0.362815   2.246712   -1.973956 H        1 UNL1     0.0234
     110 H         -0.349125   2.010654   -3.601906 H        1 UNL1     0.0234
     111 H         0.655194   3.379793   -3.276874 H        1 UNL1     0.0234
     112 H         -0.951373   0.94264   0.207343 H        1 UNL1     0.0342
     113 H         -0.904921   -0.66197   -0.605867 H        1 UNL1     0.0342
     114 H         -0.636403   0.817045   -1.532357 H        1 UNL1     0.0342
     115 H         -3.038829   4.883344   1.661195 H        1 UNL1     0.0234
     116 H         -2.722904   5.568214   0.063719 H        1 UNL1     0.0234
     117 H         -4.133952   4.545187   0.404315 H        1 UNL1     0.0234
     118 H         1.390768   6.27311   -4.403365 H        1 UNL1     0.0309
     119 H         2.965415   6.388027   -5.249143 H        1 UNL1     0.0309
     120 H         2.425003   4.896307   -4.510981 H        1 UNL1     0.0309
     121 H         -0.591472   7.586396   -1.003277 H        1 UNL1     0.0524
     122 H         -0.930086   6.841681   0.564395 H        1 UNL1     0.0524
     123 H         0.362629   6.177429   -0.465847 H        1 UNL1     0.0524
@<TRIPOS>BOND
     1     1     2    1
     2     1    42    1
     3     2     3    2
     4     3     4    1
     5     4     5    2
     6     5     7    1
     7     6    75    1
     8     6    76    1
     9     6    77    1
    10     7     9   am
    11     9    10    1
    12    10    11    2
    13    10    43    1
    14    11    14    1
    15    11    15    1
    16    12    13   ar
    17    12    27   ar
    18    12    43    1
    19    13    14    1
    20    13    30   ar
    21    14    17    2
    22    15    16    1
    23    16    17    1
    24    16    18    1
    25    16    22    1
    26    18    19    1
    27    19    20    1
    28    20    21    1
    29    21    22    1
    30    23    24    1
    31    23    88    1
    32    23    89    1
    33    24    25    1
    34    24    26    1
    35    24    90    1
    36    25    91    1
    37    25    92    1
    38    25    93    1
    39    26    94    1
    40    26    95    1
    41    26    96    1
    42    27    28   ar
    43    28    29   ar
    44    29    30   ar
    45    29    31    1
    46    30    33    1
    47    31    32    1
    48    32    33    1
    49    32    35    1
    50    34    97    1
    51    34    98    1
    52    34    99    1
    53    35    61    1
    54    36    37    1
    55    36    60    1
    56    37    38    1
    57    38    39    1
    58    39    40    1
    59    40    41    1
    60    41    42    1
    61    45   100    1
    62    47   101    1
    63    47   102    1
    64    47   103    1
    65    48   104    1
    66    49   105    1
    67    49   106    1
    68    49   107    1
    69    50   108    1
    70    51    59    1
    71    52   109    1
    72    52   110    1
    73    52   111    1
    74    53    54    1
    75    54    55    2
    76    54    56    1
    77    56   112    1
    78    56   113    1
    79    56   114    1
    80    57   115    1
    81    57   116    1
    82    57   117    1
    83    58   118    1
    84    58   119    1
    85    58   120    1
    86    59   121    1
    87    59   122    1
    88    59   123    1
    89    60    61    2
    90     1    47    1
    91     1    62    1
    92     2    63    1
    93     3    64    1
    94     4    65    1
    95     5     6    1
    96     7     8    2
    97     9    78    1
    98    15    79    1
    99    18    80    1
   100    18    81    1
   101    19    82    1
   102    19    83    1
   103    20    23    1
   104    21    84    1
   105    21    85    1
   106    22    86    1
   107    22    87    1
   108    27    45    1
   109    28    34    1
   110    32    58    1
   111    33    46    2
   112    36    51    1
   113    36    66    1
   114    37    52    1
   115    37    67    1
   116    38    53    1
   117    38    68    1
   118    42    48    1
   119    42    72    1
   120    43    44    2
   121    60    73    1
   122    61    74    1
   123    39    69    1
   124    39    57    1
   125    40    70    1
   126    40    50    1
   127    41    71    1
   128    41    49    1
