@<TRIPOS>MOLECULE
*****
 123 128 0 0 0
SMALL
GASTEIGER

@<TRIPOS>ATOM
     1 C         5.168659   1.741928   0.499925 C.3        1 UNL1     0.0009
     2 C         6.607866   2.54604   -0.348086 C.2        1 UNL1     -0.0787
     3 C         7.890742   2.446081   -1.011625 C.2        1 UNL1     -0.0649
     4 C         8.771123   3.679964   -1.765826 C.2        1 UNL1     -0.0542
     5 C         9.793133   3.971162   -2.702724 C.2        1 UNL1     0.0115
     6 C         10.921964   3.344133   -3.566378 C.3        1 UNL1     -0.0348
     7 C         9.891485   5.454236   -3.309196 C.2        1 UNL1     0.2441
     8 O         10.715823   6.274815   -2.930194 O.2        1 UNL1     -0.2702
     9 N         9.143532   5.6621   -4.481164 N.am        1 UNL1     -0.2772
     10 C         7.860803   6.050523   -4.169624 C.2        1 UNL1     0.1049
     11 C         7.013225   5.080268   -3.879043 C.2        1 UNL1     0.0801
     12 C         6.562164   7.659035   -2.761235 C.ar        1 UNL1     0.0753
     13 C         5.80084   6.532176   -2.314937 C.ar        1 UNL1     0.0305
     14 C         5.917122   5.226262   -2.96001 C.2        1 UNL1     0.0924
     15 N         7.134338   3.751113   -4.037807 N.pl3        1 UNL1     -0.3170
     16 C         5.863147   3.153669   -3.725737 C.3        1 UNL1     0.1275
     17 N         5.22636   4.109842   -2.746983 N.2        1 UNL1     -0.2557
     18 C         5.012527   3.213766   -4.99086 C.3        1 UNL1     0.0016
     19 C         5.76841   2.528564   -6.118126 C.3        1 UNL1     0.0026
     20 N         6.036053   1.150137   -5.731688 N.3        1 UNL1     -0.3018
     21 C         6.797088   0.988834   -4.491052 C.3        1 UNL1     0.0026
     22 C         6.017362   1.680496   -3.371442 C.3        1 UNL1     0.0016
     23 C         6.481349   0.329906   -6.84055 C.3        1 UNL1     0.0012
     24 C         5.327242   0.081886   -7.824562 C.3        1 UNL1     -0.0339
     25 C         5.356117   1.084924   -8.989525 C.3        1 UNL1     -0.0615
     26 C         5.365562   -1.352917   -8.321203 C.3        1 UNL1     -0.0615
     27 C         6.358282   8.927051   -2.22208 C.ar        1 UNL1     0.1347
     28 C         5.397956   9.197968   -1.263734 C.ar        1 UNL1     0.0342
     29 C         4.694097   8.064499   -0.804392 C.ar        1 UNL1     0.1435
     30 C         4.912684   6.782133   -1.309346 C.ar        1 UNL1     0.0774
     31 O         3.651811   8.179536   0.04732 O.3        1 UNL1     -0.4436
     32 C         2.928728   6.947669   -0.095953 C.3        1 UNL1     0.3143
     33 C         3.941598   5.95316   -0.626293 C.2        1 UNL1     0.2504
     34 C         4.952198   10.56471   -0.823941 C.3        1 UNL1     -0.0327
     35 O         2.565277   6.511576   1.219713 O.2        1 UNL1     -0.4528
     36 C         -0.679673   4.58369   0.817665 C.3        1 UNL1     0.0854
     37 C         -0.985144   3.323429   -0.080083 C.3        1 UNL1     0.0236
     38 C         -1.588718   2.063265   0.706955 C.3        1 UNL1     0.1131
     39 C         -0.865874   1.531487   2.009637 C.3        1 UNL1     0.0200
     40 C         0.79505   1.383725   2.053629 C.3        1 UNL1     0.0661
     41 C         1.755366   0.613498   0.886516 C.3        1 UNL1     0.0091
     42 C         3.464388   0.973716   0.325366 C.3        1 UNL1     0.0661
     43 C         7.513822   7.449952   -3.880561 C.2        1 UNL1     0.2131
     44 O         7.916121   8.347423   -4.598502 O.2        1 UNL1     -0.2851
     45 O         7.172707   9.961025   -2.679297 O.3        1 UNL1     -0.5056
     46 O         3.955755   4.749619   -0.49537 O.2        1 UNL1     -0.2836
     47 C         5.562015   1.312067   1.938838 C.3        1 UNL1     -0.0566
     48 O         3.910924   -0.43798   0.40805 O.3        1 UNL1     -0.3909
     49 C         0.922964   0.381897   -0.35484 C.3        1 UNL1     -0.0577
     50 O         1.396213   2.600823   2.447326 O.3        1 UNL1     -0.3910
     51 O         -0.806365   4.394325   2.208895 O.3        1 UNL1     -0.3753
     52 C         0.06104   3.16144   -1.230825 C.3        1 UNL1     -0.0564
     53 O         -2.191191   1.024995   -0.193794 O.3        1 UNL1     -0.4608
     54 C         -2.415817   -0.284661   0.141277 C.2        1 UNL1     0.3042
     55 O         -1.844223   -1.278461   -0.305356 O.2        1 UNL1     -0.2512
     56 C         -3.447252   -0.461279   1.219081 C.3        1 UNL1     0.0332
     57 C         -1.588134   2.201578   3.269595 C.3        1 UNL1     -0.0567
     58 C         1.855693   7.194085   -1.181957 C.3        1 UNL1     0.0210
     59 C         -1.150155   5.567501   2.944648 C.3        1 UNL1     0.0372
     60 C         0.650552   5.210968   0.589226 C.2        1 UNL1     -0.0208
     61 C         1.562602   5.645071   1.460125 C.2        1 UNL1     0.0882
     62 H         4.693912   2.726746   0.586287 H        1 UNL1     0.0365
     63 H         6.342854   3.600207   -0.243342 H        1 UNL1     0.0576
     64 H         8.347472   1.478595   -1.231799 H        1 UNL1     0.0615
     65 H         8.284684   4.59605   -1.419926 H        1 UNL1     0.0622
     66 H         -1.422798   5.331181   0.506109 H        1 UNL1     0.0645
     67 H         -1.849246   3.633887   -0.692866 H        1 UNL1     0.0362
     68 H         -2.535793   2.501449   1.057051 H        1 UNL1     0.0741
     69 H         -1.199081   0.520856   2.204588 H        1 UNL1     0.0359
     70 H         0.904456   0.723342   2.935097 H        1 UNL1     0.0600
     71 H         1.79686   -0.407678   1.31364 H        1 UNL1     0.0348
     72 H         3.357512   1.46217   1.304807 H        1 UNL1     0.0602
     73 H         0.770456   5.407945   -0.447148 H        1 UNL1     0.0628
     74 H         1.542974   5.434549   2.529954 H        1 UNL1     0.1022
     75 H         10.964705   2.238813   -3.413166 H        1 UNL1     0.0279
     76 H         10.810257   3.426954   -4.645142 H        1 UNL1     0.0279
     77 H         11.926896   3.647526   -3.238101 H        1 UNL1     0.0279
     78 H         9.081246   4.792177   -5.005979 H        1 UNL1     0.1553
     79 H         7.800071   3.322161   -4.654032 H        1 UNL1     0.1484
     80 H         4.050263   2.724144   -4.798288 H        1 UNL1     0.0317
     81 H         4.787766   4.250792   -5.262359 H        1 UNL1     0.0317
     82 H         6.700201   3.058589   -6.364606 H        1 UNL1     0.0428
     83 H         5.144832   2.584445   -7.010919 H        1 UNL1     0.0428
     84 H         6.915488   -0.054243   -4.181565 H        1 UNL1     0.0428
     85 H         7.827846   1.355473   -4.59318 H        1 UNL1     0.0428
     86 H         6.531922   1.429543   -2.462465 H        1 UNL1     0.0317
     87 H         5.037069   1.204188   -3.247945 H        1 UNL1     0.0317
     88 H         7.279023   0.870573   -7.366562 H        1 UNL1     0.0429
     89 H         6.912084   -0.616406   -6.488791 H        1 UNL1     0.0429
     90 H         4.373632   0.189934   -7.29431 H        1 UNL1     0.0308
     91 H         6.305886   1.038681   -9.53073 H        1 UNL1     0.0233
     92 H         4.536747   0.891843   -9.685917 H        1 UNL1     0.0233
     93 H         5.232586   2.121002   -8.651711 H        1 UNL1     0.0233
     94 H         4.670515   -1.481658   -9.157965 H        1 UNL1     0.0233
     95 H         6.370204   -1.59858   -8.676599 H        1 UNL1     0.0233
     96 H         5.088919   -2.056295   -7.530825 H        1 UNL1     0.0233
     97 H         4.157551   10.516081   -0.085428 H        1 UNL1     0.0280
     98 H         5.764924   11.133718   -0.353875 H        1 UNL1     0.0280
     99 H         4.580738   11.129641   -1.694554 H        1 UNL1     0.0280
     100 H         6.707222   10.711961   -3.003397 H        1 UNL1     0.2922
     101 H         4.697774   0.879644   2.442579 H        1 UNL1     0.0236
     102 H         6.012902   2.116875   2.518465 H        1 UNL1     0.0236
     103 H         6.317189   0.508384   1.939102 H        1 UNL1     0.0236
     104 H         4.330086   -0.564059   1.281765 H        1 UNL1     0.2098
     105 H         0.712485   1.280944   -0.92862 H        1 UNL1     0.0234
     106 H         1.292398   -0.406697   -1.010251 H        1 UNL1     0.0234
     107 H         0.0   -0.0   0.0 H        1 UNL1     0.0234
     108 H         1.197316   3.259993   1.75472 H        1 UNL1     0.2098
     109 H         1.085083   3.046639   -0.848897 H        1 UNL1     0.0234
     110 H         -0.171368   2.33457   -1.910543 H        1 UNL1     0.0234
     111 H         0.08451   4.044146   -1.883685 H        1 UNL1     0.0234
     112 H         -3.574401   -1.525035   1.441796 H        1 UNL1     0.0342
     113 H         -3.199288   0.099411   2.119071 H        1 UNL1     0.0342
     114 H         -4.406016   -0.07912   0.842394 H        1 UNL1     0.0342
     115 H         -2.652739   1.934582   3.319756 H        1 UNL1     0.0234
     116 H         -1.138551   1.940547   4.229692 H        1 UNL1     0.0234
     117 H         -1.647028   3.301945   3.209059 H        1 UNL1     0.0234
     118 H         0.954581   7.682246   -0.771224 H        1 UNL1     0.0309
     119 H         2.227268   7.781471   -2.027601 H        1 UNL1     0.0309
     120 H         1.466589   6.262595   -1.607434 H        1 UNL1     0.0309
     121 H         -0.344731   6.288965   2.809968 H        1 UNL1     0.0524
     122 H         -2.079076   6.034549   2.577212 H        1 UNL1     0.0524
     123 H         -1.267926   5.32949   3.998011 H        1 UNL1     0.0524
@<TRIPOS>BOND
     1     1     2    1
     2     1    42    1
     3     2     3    2
     4     3     4    1
     5     4     5    2
     6     5     7    1
     7     6    75    1
     8     6    76    1
     9     6    77    1
    10     7     9   am
    11     9    10    1
    12    10    11    2
    13    10    43    1
    14    11    14    1
    15    11    15    1
    16    12    13   ar
    17    12    27   ar
    18    12    43    1
    19    13    14    1
    20    13    30   ar
    21    14    17    2
    22    15    16    1
    23    16    17    1
    24    16    18    1
    25    16    22    1
    26    18    19    1
    27    19    20    1
    28    20    21    1
    29    21    22    1
    30    23    24    1
    31    23    88    1
    32    23    89    1
    33    24    25    1
    34    24    26    1
    35    24    90    1
    36    25    91    1
    37    25    92    1
    38    25    93    1
    39    26    94    1
    40    26    95    1
    41    26    96    1
    42    27    28   ar
    43    28    29   ar
    44    29    30   ar
    45    29    31    1
    46    30    33    1
    47    31    32    1
    48    32    33    1
    49    32    35    1
    50    34    97    1
    51    34    98    1
    52    34    99    1
    53    35    61    1
    54    36    37    1
    55    36    60    1
    56    37    38    1
    57    38    39    1
    58    39    40    1
    59    40    41    1
    60    41    42    1
    61    45   100    1
    62    47   101    1
    63    47   102    1
    64    47   103    1
    65    48   104    1
    66    49   105    1
    67    49   106    1
    68    49   107    1
    69    50   108    1
    70    51    59    1
    71    52   109    1
    72    52   110    1
    73    52   111    1
    74    53    54    1
    75    54    55    2
    76    54    56    1
    77    56   112    1
    78    56   113    1
    79    56   114    1
    80    57   115    1
    81    57   116    1
    82    57   117    1
    83    58   118    1
    84    58   119    1
    85    58   120    1
    86    59   121    1
    87    59   122    1
    88    59   123    1
    89    60    61    2
    90     1    47    1
    91     1    62    1
    92     2    63    1
    93     3    64    1
    94     4    65    1
    95     5     6    1
    96     7     8    2
    97     9    78    1
    98    15    79    1
    99    18    80    1
   100    18    81    1
   101    19    82    1
   102    19    83    1
   103    20    23    1
   104    21    84    1
   105    21    85    1
   106    22    86    1
   107    22    87    1
   108    27    45    1
   109    28    34    1
   110    32    58    1
   111    33    46    2
   112    36    51    1
   113    36    66    1
   114    37    52    1
   115    37    67    1
   116    38    53    1
   117    38    68    1
   118    42    48    1
   119    42    72    1
   120    43    44    2
   121    60    73    1
   122    61    74    1
   123    39    69    1
   124    39    57    1
   125    40    70    1
   126    40    50    1
   127    41    71    1
   128    41    49    1
