@<TRIPOS>MOLECULE
*****
 123 128 0 0 0
SMALL
GASTEIGER

@<TRIPOS>ATOM
     1 C         5.120941   1.890714   0.264818 C.3        1 UNL1     0.0009
     2 C         6.887657   1.557295   -0.187492 C.2        1 UNL1     -0.0787
     3 C         8.229819   1.16961   0.192438 C.2        1 UNL1     -0.0649
     4 C         9.561543   0.903367   -0.818494 C.2        1 UNL1     -0.0542
     5 C         10.832239   0.286321   -0.926484 C.2        1 UNL1     0.0115
     6 C         11.948809   -0.439408   -0.126538 C.3        1 UNL1     -0.0348
     7 C         11.461009   0.052768   -2.384939 C.2        1 UNL1     0.2441
     8 O         12.338657   0.764914   -2.853028 O.2        1 UNL1     -0.2702
     9 N         11.124407   -1.174686   -2.981771 N.am        1 UNL1     -0.2772
     10 C         9.948089   -1.059505   -3.686279 C.2        1 UNL1     0.1049
     11 C         8.835462   -1.170826   -2.983506 C.2        1 UNL1     0.0801
     12 C         8.781526   0.364814   -5.379731 C.ar        1 UNL1     0.0753
     13 C         7.668479   0.385656   -4.48012 C.ar        1 UNL1     0.0305
     14 C         7.612076   -0.490648   -3.312233 C.2        1 UNL1     0.0924
     15 N         8.650423   -1.587561   -1.719141 N.pl3        1 UNL1     -0.3170
     16 C         7.233039   -1.684989   -1.491581 C.3        1 UNL1     0.1275
     17 N         6.628389   -0.675249   -2.436328 N.2        1 UNL1     -0.2557
     18 C         6.787518   -3.054909   -1.994107 C.3        1 UNL1     0.0016
     19 C         7.611041   -4.122238   -1.291108 C.3        1 UNL1     0.0026
     20 N         7.407212   -3.999478   0.145698 N.3        1 UNL1     -0.3018
     21 C         7.749916   -2.693658   0.712934 C.3        1 UNL1     0.0026
     22 C         6.90785   -1.637174   -0.004465 C.3        1 UNL1     0.0016
     23 C         7.902353   -5.143367   0.88529 C.3        1 UNL1     0.0012
     24 C         8.204647   -6.31085   -0.067264 C.3        1 UNL1     -0.0339
     25 C         7.913414   -7.667294   0.595532 C.3        1 UNL1     -0.0615
     26 C         7.426849   -6.142311   -1.360865 C.3        1 UNL1     -0.0615
     27 C         8.774419   1.113635   -6.554182 C.ar        1 UNL1     0.1347
     28 C         7.699023   1.886837   -6.953845 C.ar        1 UNL1     0.0342
     29 C         6.634366   1.930622   -6.028776 C.ar        1 UNL1     0.1435
     30 C         6.642551   1.214329   -4.831246 C.ar        1 UNL1     0.0774
     31 O         5.47078   2.551039   -6.322296 O.3        1 UNL1     -0.4436
     32 C         4.520731   1.994785   -5.400959 C.3        1 UNL1     0.3143
     33 C         5.348371   1.482391   -4.239633 C.2        1 UNL1     0.2504
     34 C         7.517965   2.512209   -8.30892 C.3        1 UNL1     -0.0327
     35 O         3.726973   3.078225   -4.901603 O.2        1 UNL1     -0.4528
     36 C         0.319538   1.598665   -4.121615 C.3        1 UNL1     0.0854
     37 C         -0.051695   0.403733   -3.161487 C.3        1 UNL1     0.0236
     38 C         -1.14106   0.753102   -2.037668 C.3        1 UNL1     0.1131
     39 C         -0.944707   2.029148   -1.123653 C.3        1 UNL1     0.0200
     40 C         0.552082   2.384189   -0.478668 C.3        1 UNL1     0.0661
     41 C         1.554613   1.302796   0.359861 C.3        1 UNL1     0.0091
     42 C         3.38413   1.201943   0.449862 C.3        1 UNL1     0.0661
     43 C         9.906745   -0.550152   -5.065121 C.2        1 UNL1     0.2131
     44 O         10.698099   -0.954785   -5.897447 O.2        1 UNL1     -0.2851
     45 O         9.916038   1.07312   -7.351993 O.3        1 UNL1     -0.5056
     46 O         5.020071   1.347059   -3.082154 O.2        1 UNL1     -0.2836
     47 C         5.000985   3.250403   1.004302 C.3        1 UNL1     -0.0566
     48 O         3.417775   1.065034   1.926087 O.3        1 UNL1     -0.3909
     49 C         1.04537   -0.104441   0.141115 C.3        1 UNL1     -0.0577
     50 O         1.319373   3.150615   -1.385077 O.3        1 UNL1     -0.3910
     51 O         -0.210622   2.857319   -3.772113 O.3        1 UNL1     -0.3753
     52 C         1.18175   -0.511232   -2.867547 C.3        1 UNL1     -0.0564
     53 O         -1.731295   -0.457926   -1.376336 O.3        1 UNL1     -0.4608
     54 C         -1.571545   -1.751774   -1.798671 C.2        1 UNL1     0.3042
     55 O         -2.373711   -2.434222   -2.434778 O.2        1 UNL1     -0.2512
     56 C         -0.225614   -2.330785   -1.467112 C.3        1 UNL1     0.0332
     57 C         -1.775498   3.226674   -1.782358 C.3        1 UNL1     -0.0567
     58 C         3.868894   0.790113   -6.118876 C.3        1 UNL1     0.0210
     59 C         0.700521   3.947907   -3.899787 C.3        1 UNL1     0.0372
     60 C         1.777613   1.794625   -4.346954 C.2        1 UNL1     -0.0208
     61 C         2.509586   2.909501   -4.350706 C.2        1 UNL1     0.0882
     62 H         4.907849   2.089608   -0.792417 H        1 UNL1     0.0365
     63 H         6.882685   1.832491   -1.244239 H        1 UNL1     0.0576
     64 H         8.465565   0.843182   1.207808 H        1 UNL1     0.0615
     65 H         9.252137   1.332247   -1.775475 H        1 UNL1     0.0622
     66 H         -0.099868   1.310494   -5.095834 H        1 UNL1     0.0645
     67 H         -0.616482   -0.292321   -3.805757 H        1 UNL1     0.0362
     68 H         -2.002328   0.98572   -2.682361 H        1 UNL1     0.0741
     69 H         -1.563843   1.924795   -0.242637 H        1 UNL1     0.0359
     70 H         0.254781   3.102968   0.308751 H        1 UNL1     0.0600
     71 H         1.220836   1.495413   1.398345 H        1 UNL1     0.0348
     72 H         3.153154   2.220292   0.104998 H        1 UNL1     0.0602
     73 H         2.210582   0.874543   -4.652297 H        1 UNL1     0.0628
     74 H         2.157748   3.87937   -3.997435 H        1 UNL1     0.1022
     75 H         11.632888   -0.596807   0.932921 H        1 UNL1     0.0279
     76 H         12.199157   -1.447708   -0.448602 H        1 UNL1     0.0279
     77 H         12.848412   0.179519   0.005156 H        1 UNL1     0.0279
     78 H         10.981633   -1.878163   -2.260097 H        1 UNL1     0.1553
     79 H         9.321779   -2.130395   -1.207725 H        1 UNL1     0.1484
     80 H         5.716468   -3.178452   -1.793219 H        1 UNL1     0.0317
     81 H         6.914047   -3.133799   -3.079196 H        1 UNL1     0.0317
     82 H         8.678139   -4.047595   -1.547315 H        1 UNL1     0.0428
     83 H         7.27839   -5.090886   -1.665429 H        1 UNL1     0.0428
     84 H         7.512903   -2.601991   1.777469 H        1 UNL1     0.0428
     85 H         8.829669   -2.496525   0.662065 H        1 UNL1     0.0428
     86 H         7.084995   -0.71841   0.523248 H        1 UNL1     0.0317
     87 H         5.841485   -1.827413   0.168076 H        1 UNL1     0.0317
     88 H         8.834749   -4.849504   1.384867 H        1 UNL1     0.0429
     89 H         7.197945   -5.445541   1.670958 H        1 UNL1     0.0429
     90 H         9.263968   -6.279908   -0.348501 H        1 UNL1     0.0308
     91 H         6.946168   -7.660587   1.106896 H        1 UNL1     0.0233
     92 H         7.921354   -8.469335   -0.146274 H        1 UNL1     0.0233
     93 H         8.667596   -7.936421   1.344942 H        1 UNL1     0.0233
     94 H         7.319615   -7.108466   -1.865721 H        1 UNL1     0.0233
     95 H         6.42458   -5.760529   -1.147177 H        1 UNL1     0.0233
     96 H         7.930313   -5.450504   -2.041964 H        1 UNL1     0.0233
     97 H         7.439273   3.593745   -8.251315 H        1 UNL1     0.0280
     98 H         8.365786   2.307664   -8.975717 H        1 UNL1     0.0280
     99 H         6.597911   2.123128   -8.774979 H        1 UNL1     0.0280
     100 H         9.746886   1.071508   -8.27774 H        1 UNL1     0.2922
     101 H         3.949761   3.506027   1.135606 H        1 UNL1     0.0236
     102 H         5.559512   4.051636   0.521543 H        1 UNL1     0.0236
     103 H         5.407284   3.202109   2.028403 H        1 UNL1     0.0236
     104 H         3.769614   0.1769   2.131995 H        1 UNL1     0.2098
     105 H         1.452156   -0.597657   -0.738132 H        1 UNL1     0.0234
     106 H         1.123358   -0.757209   1.010448 H        1 UNL1     0.0234
     107 H         -0.0   0.0   0.0 H        1 UNL1     0.0234
     108 H         1.429196   4.038582   -0.993643 H        1 UNL1     0.2098
     109 H         1.28642   -1.318272   -3.606087 H        1 UNL1     0.0234
     110 H         2.122819   0.044716   -2.796456 H        1 UNL1     0.0234
     111 H         1.092806   -1.009745   -1.893113 H        1 UNL1     0.0234
     112 H         -0.156393   -3.353971   -1.848748 H        1 UNL1     0.0342
     113 H         0.589346   -1.716257   -1.846636 H        1 UNL1     0.0342
     114 H         -0.129885   -2.372105   -0.37336 H        1 UNL1     0.0342
     115 H         -2.793815   3.289932   -1.374661 H        1 UNL1     0.0234
     116 H         -1.311874   4.20774   -1.661479 H        1 UNL1     0.0234
     117 H         -1.98455   3.078727   -2.855834 H        1 UNL1     0.0234
     118 H         2.863218   0.565717   -5.722307 H        1 UNL1     0.0309
     119 H         3.805309   0.919642   -7.203949 H        1 UNL1     0.0309
     120 H         4.418475   -0.143559   -5.956637 H        1 UNL1     0.0309
     121 H         0.823621   4.151925   -4.963074 H        1 UNL1     0.0524
     122 H         0.319926   4.868587   -3.426993 H        1 UNL1     0.0524
     123 H         1.657565   3.692262   -3.45391 H        1 UNL1     0.0524
@<TRIPOS>BOND
     1     1     2    1
     2     1    42    1
     3     2     3    2
     4     3     4    1
     5     4     5    2
     6     5     7    1
     7     6    75    1
     8     6    76    1
     9     6    77    1
    10     7     9   am
    11     9    10    1
    12    10    11    2
    13    10    43    1
    14    11    14    1
    15    11    15    1
    16    12    13   ar
    17    12    27   ar
    18    12    43    1
    19    13    14    1
    20    13    30   ar
    21    14    17    2
    22    15    16    1
    23    16    17    1
    24    16    18    1
    25    16    22    1
    26    18    19    1
    27    19    20    1
    28    20    21    1
    29    21    22    1
    30    23    24    1
    31    23    88    1
    32    23    89    1
    33    24    25    1
    34    24    26    1
    35    24    90    1
    36    25    91    1
    37    25    92    1
    38    25    93    1
    39    26    94    1
    40    26    95    1
    41    26    96    1
    42    27    28   ar
    43    28    29   ar
    44    29    30   ar
    45    29    31    1
    46    30    33    1
    47    31    32    1
    48    32    33    1
    49    32    35    1
    50    34    97    1
    51    34    98    1
    52    34    99    1
    53    35    61    1
    54    36    37    1
    55    36    60    1
    56    37    38    1
    57    38    39    1
    58    39    40    1
    59    40    41    1
    60    41    42    1
    61    45   100    1
    62    47   101    1
    63    47   102    1
    64    47   103    1
    65    48   104    1
    66    49   105    1
    67    49   106    1
    68    49   107    1
    69    50   108    1
    70    51    59    1
    71    52   109    1
    72    52   110    1
    73    52   111    1
    74    53    54    1
    75    54    55    2
    76    54    56    1
    77    56   112    1
    78    56   113    1
    79    56   114    1
    80    57   115    1
    81    57   116    1
    82    57   117    1
    83    58   118    1
    84    58   119    1
    85    58   120    1
    86    59   121    1
    87    59   122    1
    88    59   123    1
    89    60    61    2
    90     1    47    1
    91     1    62    1
    92     2    63    1
    93     3    64    1
    94     4    65    1
    95     5     6    1
    96     7     8    2
    97     9    78    1
    98    15    79    1
    99    18    80    1
   100    18    81    1
   101    19    82    1
   102    19    83    1
   103    20    23    1
   104    21    84    1
   105    21    85    1
   106    22    86    1
   107    22    87    1
   108    27    45    1
   109    28    34    1
   110    32    58    1
   111    33    46    2
   112    36    51    1
   113    36    66    1
   114    37    52    1
   115    37    67    1
   116    38    53    1
   117    38    68    1
   118    42    48    1
   119    42    72    1
   120    43    44    2
   121    60    73    1
   122    61    74    1
   123    39    69    1
   124    39    57    1
   125    40    70    1
   126    40    50    1
   127    41    71    1
   128    41    49    1
