@<TRIPOS>MOLECULE
*****
 123 128 0 0 0
SMALL
GASTEIGER

@<TRIPOS>ATOM
     1 C         4.481395   3.005849   -0.945372 C.3        1 UNL1     0.0009
     2 C         5.898935   3.326503   -2.09637 C.2        1 UNL1     -0.0787
     3 C         7.298504   3.180003   -2.436653 C.2        1 UNL1     -0.0649
     4 C         8.078733   3.658604   -3.860922 C.2        1 UNL1     -0.0542
     5 C         9.220579   3.471527   -4.678397 C.2        1 UNL1     0.0115
     6 C         10.624292   2.809239   -4.743866 C.3        1 UNL1     -0.0348
     7 C         9.173259   3.96769   -6.204364 C.2        1 UNL1     0.2441
     8 O         9.7062   5.000967   -6.58494 O.2        1 UNL1     -0.2702
     9 N         8.705371   3.009946   -7.120857 N.am        1 UNL1     -0.2772
     10 C         7.335169   3.076715   -7.22767 C.2        1 UNL1     0.1049
     11 C         6.64717   2.432066   -6.302842 C.2        1 UNL1     0.0801
     12 C         5.447943   4.683202   -7.566659 C.ar        1 UNL1     0.0753
     13 C         4.834641   4.082843   -6.421217 C.ar        1 UNL1     0.0305
     14 C         5.35444   2.850583   -5.832663 C.2        1 UNL1     0.0924
     15 N         7.058423   1.541065   -5.38441 N.pl3        1 UNL1     -0.3170
     16 C         5.890203   1.008791   -4.734642 C.3        1 UNL1     0.1275
     17 N         4.862631   2.108686   -4.844412 N.2        1 UNL1     -0.2557
     18 C         5.375893   -0.138963   -5.598267 C.3        1 UNL1     0.0016
     19 C         6.500084   -1.144306   -5.790804 C.3        1 UNL1     0.0026
     20 N         6.928307   -1.623182   -4.483772 N.3        1 UNL1     -0.3018
     21 C         7.382992   -0.582922   -3.558846 C.3        1 UNL1     0.0026
     22 C         6.236733   0.41341   -3.376339 C.3        1 UNL1     0.0016
     23 C         7.778941   -2.793985   -4.563058 C.3        1 UNL1     0.0012
     24 C         6.96783   -4.019645   -5.012072 C.3        1 UNL1     -0.0339
     25 C         7.485683   -5.3088   -4.353312 C.3        1 UNL1     -0.0615
     26 C         5.492133   -3.800303   -4.727489 C.3        1 UNL1     -0.0615
     27 C         4.877832   5.788034   -8.194702 C.ar        1 UNL1     0.1347
     28 C         3.680457   6.353659   -7.794187 C.ar        1 UNL1     0.0342
     29 C         3.119915   5.776564   -6.634912 C.ar        1 UNL1     0.1435
     30 C         3.698516   4.692407   -5.973819 C.ar        1 UNL1     0.0774
     31 O         1.900638   6.143825   -6.183814 O.3        1 UNL1     -0.4436
     32 C         1.486678   5.061951   -5.335841 C.3        1 UNL1     0.3143
     33 C         2.770758   4.381567   -4.906387 C.2        1 UNL1     0.2504
     34 C         2.885283   7.371584   -8.563359 C.3        1 UNL1     -0.0327
     35 O         0.907407   5.640221   -4.159703 O.2        1 UNL1     -0.4528
     36 C         -1.706621   3.162628   -2.961168 C.3        1 UNL1     0.0854
     37 C         -1.535521   1.643652   -2.572634 C.3        1 UNL1     0.0236
     38 C         -2.05543   1.258673   -1.105246 C.3        1 UNL1     0.1131
     39 C         -1.580236   2.105657   0.143385 C.3        1 UNL1     0.0200
     40 C         0.01686   2.562096   0.29631 C.3        1 UNL1     0.0661
     41 C         1.361536   1.539106   0.144821 C.3        1 UNL1     0.0091
     42 C         3.052265   1.880682   -0.47981 C.3        1 UNL1     0.0661
     43 C         6.664031   4.035535   -8.117946 C.2        1 UNL1     0.2131
     44 O         7.046185   4.186584   -9.264192 O.2        1 UNL1     -0.2851
     45 O         5.562268   6.340089   -9.275544 O.3        1 UNL1     -0.5056
     46 O         2.985891   3.745106   -3.899169 O.2        1 UNL1     -0.2836
     47 C         4.590619   3.912209   0.310241 C.3        1 UNL1     -0.0566
     48 O         3.7305   1.215805   0.659072 O.3        1 UNL1     -0.3909
     49 C         0.915352   0.235883   -0.479698 C.3        1 UNL1     -0.0577
     50 O         0.25719   3.779428   -0.380497 O.3        1 UNL1     -0.3910
     51 O         -2.126915   4.020193   -1.924169 O.3        1 UNL1     -0.3753
     52 C         -0.231095   1.031222   -3.179554 C.3        1 UNL1     -0.0564
     53 O         -2.209013   -0.218761   -0.890938 O.3        1 UNL1     -0.4608
     54 C         -2.259818   -0.844465   0.327193 C.2        1 UNL1     0.3042
     55 O         -1.360157   -1.475171   0.880959 O.2        1 UNL1     -0.2512
     56 C         -3.566501   -0.658692   1.044676 C.3        1 UNL1     0.0332
     57 C         -2.70163   3.208764   0.432877 C.3        1 UNL1     -0.0567
     58 C         0.681456   4.089602   -6.228972 C.3        1 UNL1     0.0210
     59 C         -3.472037   4.482587   -2.036881 C.3        1 UNL1     0.0372
     60 C         -0.508292   3.792322   -3.579758 C.2        1 UNL1     -0.0208
     61 C         0.063974   4.974441   -3.347701 C.2        1 UNL1     0.0882
     62 H         3.818208   3.523929   -1.648569 H        1 UNL1     0.0365
     63 H         5.417258   3.965387   -2.839528 H        1 UNL1     0.0576
     64 H         7.973572   2.569541   -1.832727 H        1 UNL1     0.0615
     65 H         7.35497   4.319934   -4.34496 H        1 UNL1     0.0622
     66 H         -2.482687   3.162726   -3.739478 H        1 UNL1     0.0645
     67 H         -2.268999   1.119683   -3.209836 H        1 UNL1     0.0362
     68 H         -3.125491   1.487976   -1.223191 H        1 UNL1     0.0741
     69 H         -1.748244   1.526132   1.041344 H        1 UNL1     0.0359
     70 H         0.035672   2.833691   1.36913 H        1 UNL1     0.0600
     71 H         1.495646   1.238263   1.202396 H        1 UNL1     0.0348
     72 H         2.619011   2.859242   -0.226772 H        1 UNL1     0.0602
     73 H         -0.181772   3.195603   -4.394964 H        1 UNL1     0.0628
     74 H         -0.172678   5.618306   -2.499956 H        1 UNL1     0.1022
     75 H         10.809872   2.192843   -3.831369 H        1 UNL1     0.0279
     76 H         10.786106   2.093631   -5.546855 H        1 UNL1     0.0279
     77 H         11.443074   3.540948   -4.681428 H        1 UNL1     0.0279
     78 H         8.941778   2.076547   -6.790773 H        1 UNL1     0.1553
     79 H         7.923595   1.036496   -5.446221 H        1 UNL1     0.1484
     80 H         4.509383   -0.596518   -5.105754 H        1 UNL1     0.0317
     81 H         5.026825   0.22805   -6.569403 H        1 UNL1     0.0317
     82 H         7.34283   -0.710722   -6.349102 H        1 UNL1     0.0428
     83 H         6.112375   -1.953253   -6.410753 H        1 UNL1     0.0428
     84 H         7.622923   -0.958951   -2.559422 H        1 UNL1     0.0428
     85 H         8.316586   -0.113526   -3.898531 H        1 UNL1     0.0428
     86 H         6.554701   1.081032   -2.597131 H        1 UNL1     0.0317
     87 H         5.36721   -0.09187   -2.938481 H        1 UNL1     0.0317
     88 H         8.559738   -2.598927   -5.309786 H        1 UNL1     0.0429
     89 H         8.286831   -2.983251   -3.608595 H        1 UNL1     0.0429
     90 H         7.050441   -4.126044   -6.100221 H        1 UNL1     0.0308
     91 H         7.65101   -5.168728   -3.280862 H        1 UNL1     0.0233
     92 H         6.780295   -6.129502   -4.503263 H        1 UNL1     0.0233
     93 H         8.438724   -5.642693   -4.781172 H        1 UNL1     0.0233
     94 H         4.916759   -4.688247   -5.010926 H        1 UNL1     0.0233
     95 H         5.339513   -3.626741   -3.65859 H        1 UNL1     0.0233
     96 H         5.101561   -2.94343   -5.283537 H        1 UNL1     0.0233
     97 H         1.882559   7.02037   -8.787911 H        1 UNL1     0.0280
     98 H         2.757623   8.30675   -8.002624 H        1 UNL1     0.0280
     99 H         3.39438   7.595095   -9.515177 H        1 UNL1     0.0280
     100 H         5.353274   5.955929   -10.10883 H        1 UNL1     0.2922
     101 H         3.617009   3.989463   0.79374 H        1 UNL1     0.0236
     102 H         5.019987   4.890485   0.096695 H        1 UNL1     0.0236
     103 H         5.251049   3.477164   1.078851 H        1 UNL1     0.0236
     104 H         3.861819   1.887205   1.356889 H        1 UNL1     0.2098
     105 H         0.726   0.291796   -1.548731 H        1 UNL1     0.0234
     106 H         1.552053   -0.619198   -0.253037 H        1 UNL1     0.0234
     107 H         0.0   -0.0   0.0 H        1 UNL1     0.0234
     108 H         1.225317   3.88256   -0.457048 H        1 UNL1     0.2098
     109 H         -0.225844   1.068776   -4.277859 H        1 UNL1     0.0234
     110 H         0.682624   1.495118   -2.792691 H        1 UNL1     0.0234
     111 H         -0.122332   -0.029747   -2.9179 H        1 UNL1     0.0234
     112 H         -3.893087   -1.610077   1.475438 H        1 UNL1     0.0342
     113 H         -3.508244   0.116127   1.807634 H        1 UNL1     0.0342
     114 H         -4.320284   -0.345608   0.309181 H        1 UNL1     0.0342
     115 H         -2.81102   3.407591   1.507908 H        1 UNL1     0.0234
     116 H         -2.521282   4.165478   -0.061311 H        1 UNL1     0.0234
     117 H         -3.72176   2.877905   0.172476 H        1 UNL1     0.0234
     118 H         -0.39333   4.088184   -5.976308 H        1 UNL1     0.0309
     119 H         0.797704   4.292309   -7.298364 H        1 UNL1     0.0309
     120 H         0.976205   3.04442   -6.084664 H        1 UNL1     0.0309
     121 H         -3.548661   5.413727   -1.47611 H        1 UNL1     0.0524
     122 H         -3.753769   4.69956   -3.080714 H        1 UNL1     0.0524
     123 H         -4.158478   3.744012   -1.632652 H        1 UNL1     0.0524
@<TRIPOS>BOND
     1     1     2    1
     2     1    42    1
     3     2     3    2
     4     3     4    1
     5     4     5    2
     6     5     7    1
     7     6    75    1
     8     6    76    1
     9     6    77    1
    10     7     9   am
    11     9    10    1
    12    10    11    2
    13    10    43    1
    14    11    14    1
    15    11    15    1
    16    12    13   ar
    17    12    27   ar
    18    12    43    1
    19    13    14    1
    20    13    30   ar
    21    14    17    2
    22    15    16    1
    23    16    17    1
    24    16    18    1
    25    16    22    1
    26    18    19    1
    27    19    20    1
    28    20    21    1
    29    21    22    1
    30    23    24    1
    31    23    88    1
    32    23    89    1
    33    24    25    1
    34    24    26    1
    35    24    90    1
    36    25    91    1
    37    25    92    1
    38    25    93    1
    39    26    94    1
    40    26    95    1
    41    26    96    1
    42    27    28   ar
    43    28    29   ar
    44    29    30   ar
    45    29    31    1
    46    30    33    1
    47    31    32    1
    48    32    33    1
    49    32    35    1
    50    34    97    1
    51    34    98    1
    52    34    99    1
    53    35    61    1
    54    36    37    1
    55    36    60    1
    56    37    38    1
    57    38    39    1
    58    39    40    1
    59    40    41    1
    60    41    42    1
    61    45   100    1
    62    47   101    1
    63    47   102    1
    64    47   103    1
    65    48   104    1
    66    49   105    1
    67    49   106    1
    68    49   107    1
    69    50   108    1
    70    51    59    1
    71    52   109    1
    72    52   110    1
    73    52   111    1
    74    53    54    1
    75    54    55    2
    76    54    56    1
    77    56   112    1
    78    56   113    1
    79    56   114    1
    80    57   115    1
    81    57   116    1
    82    57   117    1
    83    58   118    1
    84    58   119    1
    85    58   120    1
    86    59   121    1
    87    59   122    1
    88    59   123    1
    89    60    61    2
    90     1    47    1
    91     1    62    1
    92     2    63    1
    93     3    64    1
    94     4    65    1
    95     5     6    1
    96     7     8    2
    97     9    78    1
    98    15    79    1
    99    18    80    1
   100    18    81    1
   101    19    82    1
   102    19    83    1
   103    20    23    1
   104    21    84    1
   105    21    85    1
   106    22    86    1
   107    22    87    1
   108    27    45    1
   109    28    34    1
   110    32    58    1
   111    33    46    2
   112    36    51    1
   113    36    66    1
   114    37    52    1
   115    37    67    1
   116    38    53    1
   117    38    68    1
   118    42    48    1
   119    42    72    1
   120    43    44    2
   121    60    73    1
   122    61    74    1
   123    39    69    1
   124    39    57    1
   125    40    70    1
   126    40    50    1
   127    41    71    1
   128    41    49    1
