@<TRIPOS>MOLECULE
*****
 123 128 0 0 0
SMALL
GASTEIGER

@<TRIPOS>ATOM
     1 C         5.168456   1.745129   0.490115 C.3        1 UNL1     0.0009
     2 C         6.605939   2.549249   -0.36081 C.2        1 UNL1     -0.0787
     3 C         7.887677   2.449341   -1.026552 C.2        1 UNL1     -0.0649
     4 C         8.766373   3.683115   -1.782893 C.2        1 UNL1     -0.0542
     5 C         9.786652   3.974157   -2.721724 C.2        1 UNL1     0.0115
     6 C         10.914147   3.347038   -3.587057 C.3        1 UNL1     -0.0348
     7 C         9.883508   5.456965   -3.329084 C.2        1 UNL1     0.2441
     8 O         10.708271   6.277967   -2.951927 O.2        1 UNL1     -0.2702
     9 N         9.133438   5.664047   -4.499837 N.am        1 UNL1     -0.2772
     10 C         7.851145   6.052248   -4.186233 C.2        1 UNL1     0.1049
     11 C         7.00436   5.081888   -3.893696 C.2        1 UNL1     0.0801
     12 C         6.554513   7.661064   -2.776343 C.ar        1 UNL1     0.0753
     13 C         5.794301   6.534199   -2.328166 C.ar        1 UNL1     0.0305
     14 C         5.909831   5.228008   -2.972811 C.2        1 UNL1     0.0924
     15 N         7.125582   3.752691   -4.052031 N.pl3        1 UNL1     -0.3170
     16 C         5.855114   3.15503   -3.737441 C.3        1 UNL1     0.1275
     17 N         5.219768   4.11149   -2.758032 N.2        1 UNL1     -0.2557
     18 C         5.002257   3.214268   -5.001098 C.3        1 UNL1     0.0016
     19 C         5.756359   2.52874   -6.129358 C.3        1 UNL1     0.0026
     20 N         6.025081   1.150578   -5.742725 N.3        1 UNL1     -0.3018
     21 C         6.78834   0.990096   -4.50335 C.3        1 UNL1     0.0026
     22 C         6.01038   1.682072   -3.382706 C.3        1 UNL1     0.0016
     23 C         6.468668   0.32994   -6.851971 C.3        1 UNL1     0.0012
     24 C         5.312908   0.08111   -7.833835 C.3        1 UNL1     -0.0339
     25 C         5.349587   1.072547   -9.008469 C.3        1 UNL1     -0.0615
     26 C         5.340476   -1.358694   -8.316519 C.3        1 UNL1     -0.0615
     27 C         6.351209   8.929281   -2.237443 C.ar        1 UNL1     0.1347
     28 C         5.392488   9.200383   -1.277544 C.ar        1 UNL1     0.0342
     29 C         4.689766   8.066932   -0.81642 C.ar        1 UNL1     0.1435
     30 C         4.907839   6.784386   -1.321137 C.ar        1 UNL1     0.0774
     31 O         3.648944   8.182078   0.037065 O.3        1 UNL1     -0.4436
     32 C         2.925968   6.949932   -0.104343 C.3        1 UNL1     0.3143
     33 C         3.938195   5.955461   -0.63598 C.2        1 UNL1     0.2504
     34 C         4.947104   10.567207   -0.837629 C.3        1 UNL1     -0.0327
     35 O         2.564955   6.514369   1.21217 O.2        1 UNL1     -0.4528
     36 C         -0.680135   4.585348   0.816751 C.3        1 UNL1     0.0854
     37 C         -0.986815   3.324565   -0.079851 C.3        1 UNL1     0.0236
     38 C         -1.58864   2.064606   0.708854 C.3        1 UNL1     0.1131
     39 C         -0.863356   1.533668   2.010521 C.3        1 UNL1     0.0200
     40 C         0.797686   1.386409   2.051669 C.3        1 UNL1     0.0661
     41 C         1.756176   0.615896   0.883243 C.3        1 UNL1     0.0091
     42 C         3.464105   0.976339   0.318919 C.3        1 UNL1     0.0661
     43 C         7.504265   7.451716   -3.897237 C.2        1 UNL1     0.2131
     44 O         7.905041   8.348956   -4.616316 O.2        1 UNL1     -0.2851
     45 O         7.164529   9.96327   -2.696588 O.3        1 UNL1     -0.5056
     46 O         3.952932   4.751987   -0.504501 O.2        1 UNL1     -0.2836
     47 C         5.564463   1.316078   1.928543 C.3        1 UNL1     -0.0566
     48 O         3.911196   -0.435188   0.401501 O.3        1 UNL1     -0.3909
     49 C         0.921663   0.383455   -0.356537 C.3        1 UNL1     -0.0577
     50 O         1.399186   2.603872   2.443721 O.3        1 UNL1     -0.3910
     51 O         -0.804329   4.396619   2.208292 O.3        1 UNL1     -0.3753
     52 C         0.057394   3.162324   -1.23235 C.3        1 UNL1     -0.0564
     53 O         -2.192391   1.025727   -0.190335 O.3        1 UNL1     -0.4608
     54 C         -2.428148   -0.280579   0.150127 C.2        1 UNL1     0.3042
     55 O         -1.860127   -1.280562   -0.287165 O.2        1 UNL1     -0.2512
     56 C         -3.468267   -0.444504   1.221572 C.3        1 UNL1     0.0332
     57 C         -1.583597   2.204158   3.271421 C.3        1 UNL1     -0.0567
     58 C         1.850957   7.195512   -1.188581 C.3        1 UNL1     0.0210
     59 C         -1.11624   5.576387   2.9477 C.3        1 UNL1     0.0372
     60 C         0.649504   5.212902   0.585674 C.2        1 UNL1     -0.0208
     61 C         1.562955   5.64769   1.45476 C.2        1 UNL1     0.0882
     62 H         4.693575   2.729852   0.576834 H        1 UNL1     0.0365
     63 H         6.340804   3.603389   -0.256109 H        1 UNL1     0.0576
     64 H         8.344301   1.481882   -1.24706 H        1 UNL1     0.0615
     65 H         8.280276   4.599227   -1.436582 H        1 UNL1     0.0622
     66 H         -1.424023   5.332473   0.506139 H        1 UNL1     0.0645
     67 H         -1.852082   3.634477   -0.691266 H        1 UNL1     0.0362
     68 H         -2.535226   2.502685   1.0604 H        1 UNL1     0.0741
     69 H         -1.195926   0.523035   2.206545 H        1 UNL1     0.0359
     70 H         0.908832   0.726484   2.933261 H        1 UNL1     0.0600
     71 H         1.798717   -0.405061   1.310787 H        1 UNL1     0.0348
     72 H         3.358807   1.465236   1.298311 H        1 UNL1     0.0602
     73 H         0.767531   5.409412   -0.451004 H        1 UNL1     0.0628
     74 H         1.545266   5.43768   2.524723 H        1 UNL1     0.1022
     75 H         10.938862   2.23842   -3.45519 H        1 UNL1     0.0279
     76 H         10.813986   3.452558   -4.664972 H        1 UNL1     0.0279
     77 H         11.920335   3.628699   -3.243613 H        1 UNL1     0.0279
     78 H         9.070484   4.793852   -5.024122 H        1 UNL1     0.1553
     79 H         7.790356   3.323634   -4.669216 H        1 UNL1     0.1484
     80 H         4.040475   2.72446   -4.8066 H        1 UNL1     0.0317
     81 H         4.776718   4.251097   -5.272702 H        1 UNL1     0.0317
     82 H         6.687561   3.058916   -6.37773 H        1 UNL1     0.0428
     83 H         5.131198   2.584009   -7.021081 H        1 UNL1     0.0428
     84 H         6.907587   -0.052797   -4.193567 H        1 UNL1     0.0428
     85 H         7.818811   1.356984   -4.607464 H        1 UNL1     0.0428
     86 H         6.526608   1.431708   -2.474513 H        1 UNL1     0.0317
     87 H         5.030443   1.20554   -3.257258 H        1 UNL1     0.0317
     88 H         7.265261   0.870585   -7.379643 H        1 UNL1     0.0429
     89 H         6.900296   -0.616077   -6.500512 H        1 UNL1     0.0429
     90 H         4.36004   0.201503   -7.304909 H        1 UNL1     0.0308
     91 H         6.302663   1.020449   -9.543291 H        1 UNL1     0.0233
     92 H         4.534434   0.87301   -9.707982 H        1 UNL1     0.0233
     93 H         5.224573   2.111984   -8.681701 H        1 UNL1     0.0233
     94 H         4.645787   -1.489932   -9.153191 H        1 UNL1     0.0233
     95 H         6.343687   -1.615859   -8.667797 H        1 UNL1     0.0233
     96 H         5.056876   -2.052141   -7.519857 H        1 UNL1     0.0233
     97 H         4.147476   10.518842   -0.104495 H        1 UNL1     0.0280
     98 H         5.758064   11.133202   -0.360921 H        1 UNL1     0.0280
     99 H         4.582766   11.134978   -1.709402 H        1 UNL1     0.0280
     100 H         6.698275   10.714701   -3.018428 H        1 UNL1     0.2922
     101 H         4.698103   0.89507   2.438277 H        1 UNL1     0.0236
     102 H         6.027224   2.117903   2.502922 H        1 UNL1     0.0236
     103 H         6.310683   0.504076   1.927851 H        1 UNL1     0.0236
     104 H         4.330348   -0.561183   1.275233 H        1 UNL1     0.2098
     105 H         0.70865   1.282381   -0.929571 H        1 UNL1     0.0234
     106 H         1.291012   -0.40433   -1.01297 H        1 UNL1     0.0234
     107 H         0.0   -0.0   0.0 H        1 UNL1     0.0234
     108 H         1.216292   3.257228   1.741266 H        1 UNL1     0.2098
     109 H         1.083601   3.060393   -0.852584 H        1 UNL1     0.0234
     110 H         -0.16931   2.327443   -1.904156 H        1 UNL1     0.0234
     111 H         0.070667   4.039497   -1.892909 H        1 UNL1     0.0234
     112 H         -3.592753   -1.505108   1.460248 H        1 UNL1     0.0342
     113 H         -3.230683   0.131661   2.114562 H        1 UNL1     0.0342
     114 H         -4.425323   -0.072741   0.830418 H        1 UNL1     0.0342
     115 H         -2.653477   1.957026   3.309758 H        1 UNL1     0.0234
     116 H         -1.147358   1.924522   4.232436 H        1 UNL1     0.0234
     117 H         -1.621045   3.306025   3.22213 H        1 UNL1     0.0234
     118 H         0.949801   7.682202   -0.776201 H        1 UNL1     0.0309
     119 H         2.22045   7.783896   -2.034442 H        1 UNL1     0.0309
     120 H         1.462484   6.263738   -1.614012 H        1 UNL1     0.0309
     121 H         -0.294466   6.27861   2.810125 H        1 UNL1     0.0524
     122 H         -2.035552   6.066173   2.585743 H        1 UNL1     0.0524
     123 H         -1.234378   5.339408   4.001255 H        1 UNL1     0.0524
@<TRIPOS>BOND
     1     1     2    1
     2     1    42    1
     3     2     3    2
     4     3     4    1
     5     4     5    2
     6     5     7    1
     7     6    75    1
     8     6    76    1
     9     6    77    1
    10     7     9   am
    11     9    10    1
    12    10    11    2
    13    10    43    1
    14    11    14    1
    15    11    15    1
    16    12    13   ar
    17    12    27   ar
    18    12    43    1
    19    13    14    1
    20    13    30   ar
    21    14    17    2
    22    15    16    1
    23    16    17    1
    24    16    18    1
    25    16    22    1
    26    18    19    1
    27    19    20    1
    28    20    21    1
    29    21    22    1
    30    23    24    1
    31    23    88    1
    32    23    89    1
    33    24    25    1
    34    24    26    1
    35    24    90    1
    36    25    91    1
    37    25    92    1
    38    25    93    1
    39    26    94    1
    40    26    95    1
    41    26    96    1
    42    27    28   ar
    43    28    29   ar
    44    29    30   ar
    45    29    31    1
    46    30    33    1
    47    31    32    1
    48    32    33    1
    49    32    35    1
    50    34    97    1
    51    34    98    1
    52    34    99    1
    53    35    61    1
    54    36    37    1
    55    36    60    1
    56    37    38    1
    57    38    39    1
    58    39    40    1
    59    40    41    1
    60    41    42    1
    61    45   100    1
    62    47   101    1
    63    47   102    1
    64    47   103    1
    65    48   104    1
    66    49   105    1
    67    49   106    1
    68    49   107    1
    69    50   108    1
    70    51    59    1
    71    52   109    1
    72    52   110    1
    73    52   111    1
    74    53    54    1
    75    54    55    2
    76    54    56    1
    77    56   112    1
    78    56   113    1
    79    56   114    1
    80    57   115    1
    81    57   116    1
    82    57   117    1
    83    58   118    1
    84    58   119    1
    85    58   120    1
    86    59   121    1
    87    59   122    1
    88    59   123    1
    89    60    61    2
    90     1    47    1
    91     1    62    1
    92     2    63    1
    93     3    64    1
    94     4    65    1
    95     5     6    1
    96     7     8    2
    97     9    78    1
    98    15    79    1
    99    18    80    1
   100    18    81    1
   101    19    82    1
   102    19    83    1
   103    20    23    1
   104    21    84    1
   105    21    85    1
   106    22    86    1
   107    22    87    1
   108    27    45    1
   109    28    34    1
   110    32    58    1
   111    33    46    2
   112    36    51    1
   113    36    66    1
   114    37    52    1
   115    37    67    1
   116    38    53    1
   117    38    68    1
   118    42    48    1
   119    42    72    1
   120    43    44    2
   121    60    73    1
   122    61    74    1
   123    39    69    1
   124    39    57    1
   125    40    70    1
   126    40    50    1
   127    41    71    1
   128    41    49    1
