@<TRIPOS>MOLECULE
*****
 123 128 0 0 0
SMALL
GASTEIGER

@<TRIPOS>ATOM
     1 C         4.972501   2.237055   0.530635 C.3        1 UNL1     0.0009
     2 C         6.360518   3.113184   -0.331249 C.2        1 UNL1     -0.0787
     3 C         7.673107   3.09103   -0.941712 C.2        1 UNL1     -0.0649
     4 C         8.459924   4.344947   -1.763277 C.2        1 UNL1     -0.0542
     5 C         9.486382   4.663776   -2.686213 C.2        1 UNL1     0.0115
     6 C         10.705026   4.08799   -3.458676 C.3        1 UNL1     -0.0348
     7 C         9.465323   6.09821   -3.406592 C.2        1 UNL1     0.2441
     8 O         10.190093   7.023666   -3.067823 O.2        1 UNL1     -0.2702
     9 N         8.749318   6.139647   -4.615629 N.am        1 UNL1     -0.2772
     10 C         7.42333   6.420912   -4.379059 C.2        1 UNL1     0.1049
     11 C         6.662558   5.396143   -4.039503 C.2        1 UNL1     0.0801
     12 C         5.918455   7.995303   -3.148621 C.ar        1 UNL1     0.0753
     13 C         5.252261   6.835761   -2.638467 C.ar        1 UNL1     0.0305
     14 C         5.520797   5.502253   -3.172037 C.2        1 UNL1     0.0924
     15 N         6.918258   4.077459   -4.08658 N.pl3        1 UNL1     -0.3170
     16 C         5.699227   3.381906   -3.769683 C.3        1 UNL1     0.1275
     17 N         4.933305   4.342172   -2.89277 N.2        1 UNL1     -0.2557
     18 C         4.899252   3.259342   -5.063019 C.3        1 UNL1     0.0016
     19 C         5.763434   2.568353   -6.105762 C.3        1 UNL1     0.0026
     20 N         6.147322   1.257339   -5.600885 N.3        1 UNL1     -0.3018
     21 C         6.869015   1.268679   -4.326758 C.3        1 UNL1     0.0026
     22 C         5.980809   1.963108   -3.292952 C.3        1 UNL1     0.0016
     23 C         6.714967   0.402814   -6.624706 C.3        1 UNL1     0.0012
     24 C         5.631537   -0.034082   -7.623234 C.3        1 UNL1     -0.0339
     25 C         5.889558   -1.456739   -8.146236 C.3        1 UNL1     -0.0615
     26 C         4.2577   0.087032   -6.987088 C.3        1 UNL1     -0.0615
     27 C         5.570809   9.274327   -2.720416 C.ar        1 UNL1     0.1347
     28 C         4.550361   9.520939   -1.819352 C.ar        1 UNL1     0.0342
     29 C         3.94142   8.361579   -1.293767 C.ar        1 UNL1     0.1435
     30 C         4.303681   7.072417   -1.686257 C.ar        1 UNL1     0.0774
     31 O         2.85893   8.437172   -0.489089 O.3        1 UNL1     -0.4436
     32 C         2.265054   7.131939   -0.556539 C.3        1 UNL1     0.3143
     33 C         3.390345   6.205659   -0.971193 C.2        1 UNL1     0.2504
     34 C         3.95668   10.866121   -1.506097 C.3        1 UNL1     -0.0327
     35 O         1.892048   6.764221   0.777216 O.2        1 UNL1     -0.4528
     36 C         -1.1317   4.496926   0.424495 C.3        1 UNL1     0.0854
     37 C         -1.276666   3.147185   -0.37844 C.3        1 UNL1     0.0236
     38 C         -1.787009   1.897348   0.487124 C.3        1 UNL1     0.1131
     39 C         -1.069943   1.542125   1.85164 C.3        1 UNL1     0.0200
     40 C         0.594288   1.564688   1.962394 C.3        1 UNL1     0.0661
     41 C         1.671637   0.80669   0.893578 C.3        1 UNL1     0.0091
     42 C         3.359241   1.29145   0.362162 C.3        1 UNL1     0.0661
     43 C         6.930878   7.796788   -4.215322 C.2        1 UNL1     0.2131
     44 O         7.27337   8.672048   -4.989503 O.2        1 UNL1     -0.2851
     45 O         6.299254   10.346184   -3.232206 O.3        1 UNL1     -0.5056
     46 O         3.515663   5.023189   -0.743347 O.2        1 UNL1     -0.2836
     47 C         5.34646   1.960529   2.011739 C.3        1 UNL1     -0.0566
     48 O         3.936678   -0.058072   0.573046 O.3        1 UNL1     -0.3909
     49 C         0.917065   0.398399   -0.35198 C.3        1 UNL1     -0.0577
     50 O         1.058106   2.86236   2.276467 O.3        1 UNL1     -0.3910
     51 O         -1.296253   4.403412   1.821495 O.3        1 UNL1     -0.3753
     52 C         -0.173518   3.002408   -1.4771 C.3        1 UNL1     -0.0564
     53 O         -2.248713   0.737956   -0.346522 O.3        1 UNL1     -0.4608
     54 C         -2.064508   -0.584962   -0.040112 C.2        1 UNL1     0.3042
     55 O         -1.235164   -1.354971   -0.52293 O.2        1 UNL1     -0.2512
     56 C         -2.967693   -1.080447   1.053261 C.3        1 UNL1     0.0332
     57 C         -1.904652   2.231683   3.028902 C.3        1 UNL1     -0.0567
     58 C         1.21852   7.185786   -1.693815 C.3        1 UNL1     0.0210
     59 C         -1.077043   5.620238   2.533636 C.3        1 UNL1     0.0372
     60 C         0.139726   5.234399   0.190463 C.2        1 UNL1     -0.0208
     61 C         0.969041   5.823039   1.053298 C.2        1 UNL1     0.0882
     62 H         4.401448   3.173286   0.521608 H        1 UNL1     0.0365
     63 H         5.990568   4.140556   -0.320601 H        1 UNL1     0.0576
     64 H         8.230036   2.159905   -1.067981 H        1 UNL1     0.0615
     65 H         7.873287   5.231784   -1.508603 H        1 UNL1     0.0622
     66 H         -1.930374   5.140337   0.029289 H        1 UNL1     0.0645
     67 H         -2.140987   3.321807   -1.042531 H        1 UNL1     0.0362
     68 H         -2.785602   2.264441   0.769215 H        1 UNL1     0.0741
     69 H         -1.311371   0.521284   2.116224 H        1 UNL1     0.0359
     70 H         0.731006   0.988271   2.897334 H        1 UNL1     0.0600
     71 H         1.794356   -0.169361   1.402715 H        1 UNL1     0.0348
     72 H         3.165574   1.840665   1.294992 H        1 UNL1     0.0602
     73 H         0.282276   5.362076   -0.853868 H        1 UNL1     0.0628
     74 H         0.926154   5.694506   2.135369 H        1 UNL1     0.1022
     75 H         11.36537   3.505987   -2.77147 H        1 UNL1     0.0279
     76 H         10.485858   3.364926   -4.241116 H        1 UNL1     0.0279
     77 H         11.393733   4.870093   -3.810383 H        1 UNL1     0.0279
     78 H         8.793121   5.230081   -5.070436 H        1 UNL1     0.1553
     79 H         7.647061   3.670979   -4.643853 H        1 UNL1     0.1484
     80 H         3.981878   2.692394   -4.863616 H        1 UNL1     0.0317
     81 H         4.58638   4.244794   -5.42447 H        1 UNL1     0.0317
     82 H         6.648794   3.168195   -6.363132 H        1 UNL1     0.0428
     83 H         5.17442   2.492898   -7.020321 H        1 UNL1     0.0428
     84 H         7.075148   0.26953   -3.930499 H        1 UNL1     0.0428
     85 H         7.862718   1.727415   -4.423884 H        1 UNL1     0.0428
     86 H         6.479646   1.83541   -2.350167 H        1 UNL1     0.0317
     87 H         5.047042   1.402257   -3.164032 H        1 UNL1     0.0317
     88 H         7.477358   0.978333   -7.165846 H        1 UNL1     0.0429
     89 H         7.2206   -0.465918   -6.183783 H        1 UNL1     0.0429
     90 H         5.628989   0.656055   -8.475241 H        1 UNL1     0.0308
     91 H         6.140151   -2.141131   -7.330202 H        1 UNL1     0.0233
     92 H         5.01429   -1.837587   -8.677715 H        1 UNL1     0.0233
     93 H         6.721287   -1.494808   -8.860107 H        1 UNL1     0.0233
     94 H         3.658651   -0.802594   -7.209671 H        1 UNL1     0.0233
     95 H         4.354609   0.165013   -5.900585 H        1 UNL1     0.0233
     96 H         3.722397   0.965704   -7.357703 H        1 UNL1     0.0233
     97 H         2.890331   10.898082   -1.708852 H        1 UNL1     0.0280
     98 H         4.069271   11.131629   -0.446812 H        1 UNL1     0.0280
     99 H         4.448431   11.638514   -2.119844 H        1 UNL1     0.0280
     100 H         7.232365   10.264275   -3.141552 H        1 UNL1     0.2922
     101 H         4.81753   2.658031   2.660878 H        1 UNL1     0.0236
     102 H         6.421008   1.969225   2.191338 H        1 UNL1     0.0236
     103 H         5.014183   0.962637   2.343397 H        1 UNL1     0.0236
     104 H         3.529938   -0.430131   1.379957 H        1 UNL1     0.2098
     105 H         0.686215   1.219103   -1.026491 H        1 UNL1     0.0234
     106 H         1.362302   -0.429774   -0.903178 H        1 UNL1     0.0234
     107 H         0.0   -0.0   0.0 H        1 UNL1     0.0234
     108 H         2.019602   2.875964   2.105851 H        1 UNL1     0.2098
     109 H         0.840363   3.020772   -1.053521 H        1 UNL1     0.0234
     110 H         -0.296347   2.106311   -2.094893 H        1 UNL1     0.0234
     111 H         -0.209421   3.829858   -2.198198 H        1 UNL1     0.0234
     112 H         -2.755728   -2.133359   1.262529 H        1 UNL1     0.0342
     113 H         -2.885395   -0.478253   1.956827 H        1 UNL1     0.0342
     114 H         -4.005471   -1.009691   0.69946 H        1 UNL1     0.0342
     115 H         -1.883003   1.632872   3.949849 H        1 UNL1     0.0234
     116 H         -1.565334   3.237752   3.283341 H        1 UNL1     0.0234
     117 H         -2.989256   2.278115   2.83036 H        1 UNL1     0.0234
     118 H         0.185042   7.13149   -1.309133 H        1 UNL1     0.0309
     119 H         1.31849   8.072337   -2.328036 H        1 UNL1     0.0309
     120 H         1.283453   6.323198   -2.365999 H        1 UNL1     0.0309
     121 H         -0.776202   5.359068   3.547856 H        1 UNL1     0.0524
     122 H         -0.266419   6.223342   2.091831 H        1 UNL1     0.0524
     123 H         -1.987018   6.213234   2.553544 H        1 UNL1     0.0524
@<TRIPOS>BOND
     1     1     2    1
     2     1    42    1
     3     2     3    2
     4     3     4    1
     5     4     5    2
     6     5     7    1
     7     6    75    1
     8     6    76    1
     9     6    77    1
    10     7     9   am
    11     9    10    1
    12    10    11    2
    13    10    43    1
    14    11    14    1
    15    11    15    1
    16    12    13   ar
    17    12    27   ar
    18    12    43    1
    19    13    14    1
    20    13    30   ar
    21    14    17    2
    22    15    16    1
    23    16    17    1
    24    16    18    1
    25    16    22    1
    26    18    19    1
    27    19    20    1
    28    20    21    1
    29    21    22    1
    30    23    24    1
    31    23    88    1
    32    23    89    1
    33    24    25    1
    34    24    26    1
    35    24    90    1
    36    25    91    1
    37    25    92    1
    38    25    93    1
    39    26    94    1
    40    26    95    1
    41    26    96    1
    42    27    28   ar
    43    28    29   ar
    44    29    30   ar
    45    29    31    1
    46    30    33    1
    47    31    32    1
    48    32    33    1
    49    32    35    1
    50    34    97    1
    51    34    98    1
    52    34    99    1
    53    35    61    1
    54    36    37    1
    55    36    60    1
    56    37    38    1
    57    38    39    1
    58    39    40    1
    59    40    41    1
    60    41    42    1
    61    45   100    1
    62    47   101    1
    63    47   102    1
    64    47   103    1
    65    48   104    1
    66    49   105    1
    67    49   106    1
    68    49   107    1
    69    50   108    1
    70    51    59    1
    71    52   109    1
    72    52   110    1
    73    52   111    1
    74    53    54    1
    75    54    55    2
    76    54    56    1
    77    56   112    1
    78    56   113    1
    79    56   114    1
    80    57   115    1
    81    57   116    1
    82    57   117    1
    83    58   118    1
    84    58   119    1
    85    58   120    1
    86    59   121    1
    87    59   122    1
    88    59   123    1
    89    60    61    2
    90     1    47    1
    91     1    62    1
    92     2    63    1
    93     3    64    1
    94     4    65    1
    95     5     6    1
    96     7     8    2
    97     9    78    1
    98    15    79    1
    99    18    80    1
   100    18    81    1
   101    19    82    1
   102    19    83    1
   103    20    23    1
   104    21    84    1
   105    21    85    1
   106    22    86    1
   107    22    87    1
   108    27    45    1
   109    28    34    1
   110    32    58    1
   111    33    46    2
   112    36    51    1
   113    36    66    1
   114    37    52    1
   115    37    67    1
   116    38    53    1
   117    38    68    1
   118    42    48    1
   119    42    72    1
   120    43    44    2
   121    60    73    1
   122    61    74    1
   123    39    69    1
   124    39    57    1
   125    40    70    1
   126    40    50    1
   127    41    71    1
   128    41    49    1
