@<TRIPOS>MOLECULE
*****
 123 128 0 0 0
SMALL
GASTEIGER

@<TRIPOS>ATOM
     1 C         5.167221   1.748036   0.493428 C.3        1 UNL1     0.0009
     2 C         6.604226   2.554345   -0.356231 C.2        1 UNL1     -0.0787
     3 C         7.886275   2.456298   -1.02165 C.2        1 UNL1     -0.0649
     4 C         8.764061   3.691642   -1.776484 C.2        1 UNL1     -0.0542
     5 C         9.784373   3.984568   -2.714692 C.2        1 UNL1     0.0115
     6 C         10.912741   3.359363   -3.580272 C.3        1 UNL1     -0.0348
     7 C         9.880035   5.468066   -3.320556 C.2        1 UNL1     0.2441
     8 O         10.703904   6.289469   -2.942317 O.2        1 UNL1     -0.2702
     9 N         9.130155   5.675599   -4.491351 N.am        1 UNL1     -0.2772
     10 C         7.847395   6.062287   -4.177785 C.2        1 UNL1     0.1049
     11 C         7.001427   5.090843   -3.886484 C.2        1 UNL1     0.0801
     12 C         6.548791   7.668492   -2.766733 C.ar        1 UNL1     0.0753
     13 C         5.789491   6.540472   -2.319919 C.ar        1 UNL1     0.0305
     14 C         5.906458   5.235026   -2.965815 C.2        1 UNL1     0.0924
     15 N         7.123948   3.761918   -4.046091 N.pl3        1 UNL1     -0.3170
     16 C         5.853939   3.162754   -3.732509 C.3        1 UNL1     0.1275
     17 N         5.217375   4.11765   -2.752365 N.2        1 UNL1     -0.2557
     18 C         5.001441   3.222439   -4.996386 C.3        1 UNL1     0.0016
     19 C         5.756556   2.538734   -6.125075 C.3        1 UNL1     0.0026
     20 N         6.026446   1.160444   -5.739714 N.3        1 UNL1     -0.3018
     21 C         6.789449   0.999455   -4.500247 C.3        1 UNL1     0.0026
     22 C         6.010472   1.689593   -3.379177 C.3        1 UNL1     0.0016
     23 C         6.471167   0.341318   -6.849624 C.3        1 UNL1     0.0012
     24 C         5.315962   0.092373   -7.832113 C.3        1 UNL1     -0.0339
     25 C         5.341941   1.096031   -8.99661 C.3        1 UNL1     -0.0615
     26 C         5.355339   -1.342132   -8.329531 C.3        1 UNL1     -0.0615
     27 C         6.344119   8.935984   -2.226649 C.ar        1 UNL1     0.1347
     28 C         5.384829   9.205238   -1.266798 C.ar        1 UNL1     0.0342
     29 C         4.683021   8.070673   -0.807024 C.ar        1 UNL1     0.1435
     30 C         4.902464   6.788831   -1.312935 C.ar        1 UNL1     0.0774
     31 O         3.641812   8.183999   0.046232 O.3        1 UNL1     -0.4436
     32 C         2.92004   6.951316   -0.096629 C.3        1 UNL1     0.3143
     33 C         3.933375   5.95832   -0.628915 C.2        1 UNL1     0.2504
     34 C         4.938018   10.571209   -0.825681 C.3        1 UNL1     -0.0327
     35 O         2.559005   6.514114   1.219334 O.2        1 UNL1     -0.4528
     36 C         -0.684142   4.582438   0.820945 C.3        1 UNL1     0.0854
     37 C         -0.989344   3.322254   -0.077002 C.3        1 UNL1     0.0236
     38 C         -1.590244   2.060953   0.710262 C.3        1 UNL1     0.1131
     39 C         -0.864888   1.529411   2.011642 C.3        1 UNL1     0.0200
     40 C         0.796278   1.38367   2.05319 C.3        1 UNL1     0.0661
     41 C         1.755873   0.615212   0.88432 C.3        1 UNL1     0.0091
     42 C         3.463649   0.977815   0.320913 C.3        1 UNL1     0.0661
     43 C         7.499106   7.461142   -3.887521 C.2        1 UNL1     0.2131
     44 O         7.899276   8.359468   -4.605583 O.2        1 UNL1     -0.2851
     45 O         7.156618   9.97119   -2.684506 O.3        1 UNL1     -0.5056
     46 O         3.949199   4.754732   -0.498619 O.2        1 UNL1     -0.2836
     47 C         5.563159   1.317936   1.931561 C.3        1 UNL1     -0.0566
     48 O         3.912038   -0.433372   0.402249 O.3        1 UNL1     -0.3909
     49 C         0.921986   0.383211   -0.355963 C.3        1 UNL1     -0.0577
     50 O         1.396505   2.60131   2.446642 O.3        1 UNL1     -0.3910
     51 O         -0.808615   4.392219   2.212259 O.3        1 UNL1     -0.3753
     52 C         0.055395   3.162131   -1.229317 C.3        1 UNL1     -0.0564
     53 O         -2.192725   1.022395   -0.19015 O.3        1 UNL1     -0.4608
     54 C         -2.414871   -0.287808   0.144437 C.2        1 UNL1     0.3042
     55 O         -1.842198   -1.28044   -0.303409 O.2        1 UNL1     -0.2512
     56 C         -3.444789   -0.466683   1.223319 C.3        1 UNL1     0.0332
     57 C         -1.586171   2.197979   3.272967 C.3        1 UNL1     -0.0567
     58 C         1.845154   7.196956   -1.180977 C.3        1 UNL1     0.0210
     59 C         -1.152797   5.564601   2.949092 C.3        1 UNL1     0.0372
     60 C         0.644983   5.211468   0.590924 C.2        1 UNL1     -0.0208
     61 C         1.55774   5.646255   1.46074 C.2        1 UNL1     0.0882
     62 H         4.691386   2.732226   0.580963 H        1 UNL1     0.0365
     63 H         6.338067   3.608132   -0.250577 H        1 UNL1     0.0576
     64 H         8.34388   1.489486   -1.242963 H        1 UNL1     0.0615
     65 H         8.27699   4.606955   -1.429429 H        1 UNL1     0.0622
     66 H         -1.42863   5.329171   0.510826 H        1 UNL1     0.0645
     67 H         -1.854701   3.631957   -0.688395 H        1 UNL1     0.0362
     68 H         -2.537356   2.497795   1.061928 H        1 UNL1     0.0741
     69 H         -1.196573   0.518272   2.206559 H        1 UNL1     0.0359
     70 H         0.907754   0.72298   2.934168 H        1 UNL1     0.0600
     71 H         1.799234   -0.406126   1.31087 H        1 UNL1     0.0348
     72 H         3.35757   1.465646   1.300752 H        1 UNL1     0.0602
     73 H         0.763165   5.409113   -0.44552 H        1 UNL1     0.0628
     74 H         1.539898   5.435172   2.530489 H        1 UNL1     0.1022
     75 H         10.95706   2.254019   -3.427678 H        1 UNL1     0.0279
     76 H         10.799392   3.442589   -4.658834 H        1 UNL1     0.0279
     77 H         11.917766   3.663827   -3.253277 H        1 UNL1     0.0279
     78 H         9.06819   4.805863   -5.016515 H        1 UNL1     0.1553
     79 H         7.789328   3.334095   -4.663481 H        1 UNL1     0.1484
     80 H         4.040056   2.731537   -4.802688 H        1 UNL1     0.0317
     81 H         4.775018   4.259324   -5.267041 H        1 UNL1     0.0317
     82 H         6.687342   3.070029   -6.372617 H        1 UNL1     0.0428
     83 H         5.131636   2.594296   -7.016948 H        1 UNL1     0.0428
     84 H         6.909574   -0.043632   -4.191455 H        1 UNL1     0.0428
     85 H         7.819609   1.367413   -4.60366 H        1 UNL1     0.0428
     86 H         6.526637   1.438818   -2.471061 H        1 UNL1     0.0317
     87 H         5.030942   1.212018   -3.254521 H        1 UNL1     0.0317
     88 H         7.267424   0.883231   -7.3765 H        1 UNL1     0.0429
     89 H         6.903568   -0.60464   -6.498957 H        1 UNL1     0.0429
     90 H         4.362978   0.19898   -7.300447 H        1 UNL1     0.0308
     91 H         6.292179   1.053407   -9.537289 H        1 UNL1     0.0233
     92 H         4.523663   0.900352   -9.69356 H        1 UNL1     0.0233
     93 H         5.214534   2.131511   -8.658404 H        1 UNL1     0.0233
     94 H         4.659256   -1.471308   -9.165365 H        1 UNL1     0.0233
     95 H         6.359774   -1.586381   -8.686484 H        1 UNL1     0.0233
     96 H         5.08069   -2.046247   -7.539114 H        1 UNL1     0.0233
     97 H         4.144487   10.521231   -0.086059 H        1 UNL1     0.0280
     98 H         5.750714   11.14098   -0.356488 H        1 UNL1     0.0280
     99 H         4.564622   11.13612   -1.695477 H        1 UNL1     0.0280
     100 H         6.689753   10.721977   -3.006961 H        1 UNL1     0.2922
     101 H         4.70017   0.884197   2.436316 H        1 UNL1     0.0236
     102 H         6.013882   2.123008   2.51095 H        1 UNL1     0.0236
     103 H         6.31932   0.515184   1.930343 H        1 UNL1     0.0236
     104 H         4.331338   -0.559743   1.275855 H        1 UNL1     0.2098
     105 H         0.709582   1.282287   -0.92899 H        1 UNL1     0.0234
     106 H         1.291454   -0.404599   -1.012299 H        1 UNL1     0.0234
     107 H         0.0   -0.0   0.0 H        1 UNL1     0.0234
     108 H         1.198202   3.25985   1.753267 H        1 UNL1     0.2098
     109 H         1.080122   3.048398   -0.848908 H        1 UNL1     0.0234
     110 H         -0.176967   2.335317   -1.909119 H        1 UNL1     0.0234
     111 H         0.076847   4.045193   -1.881765 H        1 UNL1     0.0234
     112 H         -3.567718   -1.53057   1.447772 H        1 UNL1     0.0342
     113 H         -3.19826   0.096334   2.122251 H        1 UNL1     0.0342
     114 H         -4.405292   -0.088755   0.846795 H        1 UNL1     0.0342
     115 H         -2.655832   1.949804   3.310708 H        1 UNL1     0.0234
     116 H         -1.149985   1.917803   4.233848 H        1 UNL1     0.0234
     117 H         -1.624638   3.299858   3.224751 H        1 UNL1     0.0234
     118 H         0.94403   7.683802   -0.768712 H        1 UNL1     0.0309
     119 H         2.214799   7.785223   -2.026854 H        1 UNL1     0.0309
     120 H         1.45659   6.265202   -1.606367 H        1 UNL1     0.0309
     121 H         -0.348454   6.287123   2.813627 H        1 UNL1     0.0524
     122 H         -2.082816   6.030691   2.583218 H        1 UNL1     0.0524
     123 H         -1.268772   5.325917   4.002503 H        1 UNL1     0.0524
@<TRIPOS>BOND
     1     1     2    1
     2     1    42    1
     3     2     3    2
     4     3     4    1
     5     4     5    2
     6     5     7    1
     7     6    75    1
     8     6    76    1
     9     6    77    1
    10     7     9   am
    11     9    10    1
    12    10    11    2
    13    10    43    1
    14    11    14    1
    15    11    15    1
    16    12    13   ar
    17    12    27   ar
    18    12    43    1
    19    13    14    1
    20    13    30   ar
    21    14    17    2
    22    15    16    1
    23    16    17    1
    24    16    18    1
    25    16    22    1
    26    18    19    1
    27    19    20    1
    28    20    21    1
    29    21    22    1
    30    23    24    1
    31    23    88    1
    32    23    89    1
    33    24    25    1
    34    24    26    1
    35    24    90    1
    36    25    91    1
    37    25    92    1
    38    25    93    1
    39    26    94    1
    40    26    95    1
    41    26    96    1
    42    27    28   ar
    43    28    29   ar
    44    29    30   ar
    45    29    31    1
    46    30    33    1
    47    31    32    1
    48    32    33    1
    49    32    35    1
    50    34    97    1
    51    34    98    1
    52    34    99    1
    53    35    61    1
    54    36    37    1
    55    36    60    1
    56    37    38    1
    57    38    39    1
    58    39    40    1
    59    40    41    1
    60    41    42    1
    61    45   100    1
    62    47   101    1
    63    47   102    1
    64    47   103    1
    65    48   104    1
    66    49   105    1
    67    49   106    1
    68    49   107    1
    69    50   108    1
    70    51    59    1
    71    52   109    1
    72    52   110    1
    73    52   111    1
    74    53    54    1
    75    54    55    2
    76    54    56    1
    77    56   112    1
    78    56   113    1
    79    56   114    1
    80    57   115    1
    81    57   116    1
    82    57   117    1
    83    58   118    1
    84    58   119    1
    85    58   120    1
    86    59   121    1
    87    59   122    1
    88    59   123    1
    89    60    61    2
    90     1    47    1
    91     1    62    1
    92     2    63    1
    93     3    64    1
    94     4    65    1
    95     5     6    1
    96     7     8    2
    97     9    78    1
    98    15    79    1
    99    18    80    1
   100    18    81    1
   101    19    82    1
   102    19    83    1
   103    20    23    1
   104    21    84    1
   105    21    85    1
   106    22    86    1
   107    22    87    1
   108    27    45    1
   109    28    34    1
   110    32    58    1
   111    33    46    2
   112    36    51    1
   113    36    66    1
   114    37    52    1
   115    37    67    1
   116    38    53    1
   117    38    68    1
   118    42    48    1
   119    42    72    1
   120    43    44    2
   121    60    73    1
   122    61    74    1
   123    39    69    1
   124    39    57    1
   125    40    70    1
   126    40    50    1
   127    41    71    1
   128    41    49    1
