@<TRIPOS>MOLECULE
*****
 123 128 0 0 0
SMALL
GASTEIGER

@<TRIPOS>ATOM
     1 C         1.531638   -3.864878   -3.367057 C.3        1 UNL1     0.0009
     2 C         2.272455   -4.131789   -5.045445 C.2        1 UNL1     -0.0787
     3 C         2.151354   -4.589959   -6.413459 C.2        1 UNL1     -0.0649
     4 C         3.285578   -4.448675   -7.662431 C.2        1 UNL1     -0.0542
     5 C         3.474079   -4.461169   -9.066493 C.2        1 UNL1     0.0115
     6 C         2.786776   -4.774836   -10.423899 C.3        1 UNL1     -0.0348
     7 C         4.817363   -3.827524   -9.67565 C.2        1 UNL1     0.2441
     8 O         5.758737   -4.50738   -10.060535 O.2        1 UNL1     -0.2702
     9 N         4.737163   -2.457303   -9.979315 N.am        1 UNL1     -0.2772
     10 C         5.073398   -1.701315   -8.879884 C.2        1 UNL1     0.1049
     11 C         4.111357   -1.495424   -7.998799 C.2        1 UNL1     0.0801
     12 C         6.81113   -1.456273   -7.097308 C.ar        1 UNL1     0.0753
     13 C         5.732495   -1.448002   -6.156518 C.ar        1 UNL1     0.0305
     14 C         4.341223   -1.335024   -6.588548 C.2        1 UNL1     0.0924
     15 N         2.790439   -1.725464   -8.092526 N.pl3        1 UNL1     -0.3170
     16 C         2.163168   -1.166926   -6.924271 C.3        1 UNL1     0.1275
     17 N         3.23401   -1.213273   -5.861786 N.2        1 UNL1     -0.2557
     18 C         1.912382   0.310903   -7.208579 C.3        1 UNL1     0.0016
     19 C         1.087916   0.428353   -8.480606 C.3        1 UNL1     0.0026
     20 N         -0.165492   -0.289291   -8.293568 N.3        1 UNL1     -0.3018
     21 C         -0.025596   -1.707053   -7.954823 C.3        1 UNL1     0.0026
     22 C         0.801813   -1.801329   -6.671701 C.3        1 UNL1     0.0016
     23 C         -1.143538   0.006591   -9.321441 C.3        1 UNL1     0.0012
     24 C         -0.597898   1.061866   -10.29634 C.3        1 UNL1     -0.0339
     25 C         0.315965   0.427687   -11.357815 C.3        1 UNL1     -0.0615
     26 C         -1.745883   1.826689   -10.931917 C.3        1 UNL1     -0.0615
     27 C         8.138087   -1.442309   -6.674096 C.ar        1 UNL1     0.1347
     28 C         8.508588   -1.379919   -5.342598 C.ar        1 UNL1     0.0342
     29 C         7.430596   -1.422057   -4.433026 C.ar        1 UNL1     0.1435
     30 C         6.097301   -1.47262   -4.84167 C.ar        1 UNL1     0.0774
     31 O         7.62167   -1.258793   -3.105682 O.3        1 UNL1     -0.4436
     32 C         6.330988   -0.891016   -2.596023 C.3        1 UNL1     0.3143
     33 C         5.338368   -1.423856   -3.609433 C.2        1 UNL1     0.2504
     34 C         9.893739   -1.109541   -4.82457 C.3        1 UNL1     -0.0327
     35 O         6.125899   -1.627503   -1.384091 O.2        1 UNL1     -0.4528
     36 C         3.902092   0.547209   0.791547 C.3        1 UNL1     0.0854
     37 C         2.473396   1.137774   0.479162 C.3        1 UNL1     0.0236
     38 C         1.341984   0.775413   1.556355 C.3        1 UNL1     0.1131
     39 C         1.128177   -0.729462   1.994425 C.3        1 UNL1     0.0200
     40 C         1.125589   -1.948602   0.855948 C.3        1 UNL1     0.0661
     41 C         0.226785   -1.962827   -0.582648 C.3        1 UNL1     0.0091
     42 C         0.609697   -2.701084   -2.217811 C.3        1 UNL1     0.0661
     43 C         6.469741   -1.389796   -8.539977 C.2        1 UNL1     0.2131
     44 O         7.243291   -1.003969   -9.397587 O.2        1 UNL1     -0.2851
     45 O         9.128036   -1.497965   -7.653045 O.3        1 UNL1     -0.5056
     46 O         4.186964   -1.754745   -3.434402 O.2        1 UNL1     -0.2836
     47 C         1.417012   -5.213897   -2.607459 C.3        1 UNL1     -0.0566
     48 O         -0.719776   -3.340738   -2.367683 O.3        1 UNL1     -0.3909
     49 C         -0.303391   -0.570037   -0.840614 C.3        1 UNL1     -0.0577
     50 O         2.439753   -2.406628   0.609154 O.3        1 UNL1     -0.3910
     51 O         3.97184   -0.359476   1.868807 O.3        1 UNL1     -0.3753
     52 C         2.179697   1.16889   -1.056326 C.3        1 UNL1     -0.0564
     53 O         0.106016   1.618125   1.435745 O.3        1 UNL1     -0.4608
     54 C         0.014621   2.802244   0.752049 C.2        1 UNL1     0.3042
     55 O         0.818461   3.733696   0.760817 O.2        1 UNL1     -0.2512
     56 C         -1.195607   2.893681   -0.13322 C.3        1 UNL1     0.0332
     57 C         1.965858   -0.964759   3.336476 C.3        1 UNL1     -0.0567
     58 C         6.278745   0.654481   -2.611503 C.3        1 UNL1     0.0210
     59 C         2.721274   -0.926071   2.257291 C.3        1 UNL1     0.0372
     60 C         4.579243   -0.104497   -0.362536 C.2        1 UNL1     -0.0208
     61 C         5.243325   -1.258775   -0.435887 C.2        1 UNL1     0.0882
     62 H         2.473426   -3.403874   -3.045775 H        1 UNL1     0.0365
     63 H         3.302464   -3.8167   -4.865803 H        1 UNL1     0.0576
     64 H         1.199567   -4.942823   -6.816815 H        1 UNL1     0.0615
     65 H         4.208654   -4.171564   -7.146076 H        1 UNL1     0.0622
     66 H         4.514248   1.424488   1.04392 H        1 UNL1     0.0645
     67 H         2.590824   2.223405   0.640958 H        1 UNL1     0.0362
     68 H         1.761249   1.279848   2.440258 H        1 UNL1     0.0741
     69 H         0.149777   -0.824793   2.446147 H        1 UNL1     0.0359
     70 H         0.656326   -2.759208   1.445668 H        1 UNL1     0.0600
     71 H         -0.687536   -2.482006   -0.234185 H        1 UNL1     0.0348
     72 H         1.265694   -3.207831   -1.495183 H        1 UNL1     0.0602
     73 H         4.58404   0.563808   -1.187517 H        1 UNL1     0.0628
     74 H         5.239718   -2.022798   0.342248 H        1 UNL1     0.1022
     75 H         2.271954   -5.764951   -10.383076 H        1 UNL1     0.0279
     76 H         1.984537   -4.106008   -10.727461 H        1 UNL1     0.0279
     77 H         3.508034   -4.938909   -11.237881 H        1 UNL1     0.0279
     78 H         3.781009   -2.218853   -10.234245 H        1 UNL1     0.1553
     79 H         2.306845   -1.848126   -8.963172 H        1 UNL1     0.1484
     80 H         1.392668   0.75663   -6.351846 H        1 UNL1     0.0317
     81 H         2.857136   0.853905   -7.319212 H        1 UNL1     0.0317
     82 H         1.634432   0.04882   -9.356498 H        1 UNL1     0.0428
     83 H         0.922243   1.490112   -8.665725 H        1 UNL1     0.0428
     84 H         -0.977584   -2.203085   -7.741556 H        1 UNL1     0.0428
     85 H         0.396546   -2.286556   -8.787464 H        1 UNL1     0.0428
     86 H         0.770952   -2.835475   -6.382602 H        1 UNL1     0.0317
     87 H         0.280507   -1.292843   -5.851471 H        1 UNL1     0.0317
     88 H         -1.341091   -0.917112   -9.880942 H        1 UNL1     0.0429
     89 H         -2.097473   0.327652   -8.883603 H        1 UNL1     0.0429
     90 H         -0.018125   1.803968   -9.734771 H        1 UNL1     0.0308
     91 H         -0.110064   -0.502832   -11.74477 H        1 UNL1     0.0233
     92 H         0.481491   1.118701   -12.187701 H        1 UNL1     0.0233
     93 H         1.308734   0.182397   -10.961484 H        1 UNL1     0.0233
     94 H         -1.761866   1.653966   -12.013465 H        1 UNL1     0.0233
     95 H         -2.698384   1.480364   -10.52111 H        1 UNL1     0.0233
     96 H         -1.655311   2.902081   -10.755011 H        1 UNL1     0.0233
     97 H         9.938356   -0.196932   -4.237729 H        1 UNL1     0.0280
     98 H         10.251892   -1.909647   -4.163652 H        1 UNL1     0.0280
     99 H         10.591738   -1.009982   -5.671908 H        1 UNL1     0.0280
     100 H         8.839772   -1.255932   -8.515568 H        1 UNL1     0.2922
     101 H         2.362193   -5.43952   -2.11412 H        1 UNL1     0.0236
     102 H         1.079566   -6.034497   -3.2397 H        1 UNL1     0.0236
     103 H         0.678619   -5.167246   -1.789661 H        1 UNL1     0.0236
     104 H         -1.39692   -2.652384   -2.217306 H        1 UNL1     0.2098
     105 H         0.101264   -0.092986   -1.729707 H        1 UNL1     0.0234
     106 H         -1.390079   -0.487004   -0.82874 H        1 UNL1     0.0234
     107 H         0.0   0.0   0.0 H        1 UNL1     0.0234
     108 H         3.048219   -1.819065   1.097321 H        1 UNL1     0.2098
     109 H         3.035371   0.819209   -1.65068 H        1 UNL1     0.0234
     110 H         1.284316   0.602781   -1.334818 H        1 UNL1     0.0234
     111 H         1.970313   2.188004   -1.407767 H        1 UNL1     0.0234
     112 H         -2.103035   2.914407   0.477919 H        1 UNL1     0.0342
     113 H         -1.152557   3.75506   -0.798063 H        1 UNL1     0.0342
     114 H         -1.231724   1.991485   -0.759241 H        1 UNL1     0.0342
     115 H         3.04836   -0.905822   3.157859 H        1 UNL1     0.0234
     116 H         1.726614   -0.262985   4.137927 H        1 UNL1     0.0234
     117 H         1.871859   -1.987596   3.740098 H        1 UNL1     0.0234
     118 H         5.399327   1.034108   -3.160605 H        1 UNL1     0.0309
     119 H         6.292852   1.094889   -1.609483 H        1 UNL1     0.0309
     120 H         7.123443   1.098257   -3.149699 H        1 UNL1     0.0309
     121 H         2.333555   -0.332977   3.085102 H        1 UNL1     0.0524
     122 H         1.975665   -0.890485   1.445603 H        1 UNL1     0.0524
     123 H         2.856406   -1.958531   2.566904 H        1 UNL1     0.0524
@<TRIPOS>BOND
     1     1     2    1
     2     1    42    1
     3     2     3    2
     4     3     4    1
     5     4     5    2
     6     5     7    1
     7     6    75    1
     8     6    76    1
     9     6    77    1
    10     7     9   am
    11     9    10    1
    12    10    11    2
    13    10    43    1
    14    11    14    1
    15    11    15    1
    16    12    13   ar
    17    12    27   ar
    18    12    43    1
    19    13    14    1
    20    13    30   ar
    21    14    17    2
    22    15    16    1
    23    16    17    1
    24    16    18    1
    25    16    22    1
    26    18    19    1
    27    19    20    1
    28    20    21    1
    29    21    22    1
    30    23    24    1
    31    23    88    1
    32    23    89    1
    33    24    25    1
    34    24    26    1
    35    24    90    1
    36    25    91    1
    37    25    92    1
    38    25    93    1
    39    26    94    1
    40    26    95    1
    41    26    96    1
    42    27    28   ar
    43    28    29   ar
    44    29    30   ar
    45    29    31    1
    46    30    33    1
    47    31    32    1
    48    32    33    1
    49    32    35    1
    50    34    97    1
    51    34    98    1
    52    34    99    1
    53    35    61    1
    54    36    37    1
    55    36    60    1
    56    37    38    1
    57    38    39    1
    58    39    40    1
    59    40    41    1
    60    41    42    1
    61    45   100    1
    62    47   101    1
    63    47   102    1
    64    47   103    1
    65    48   104    1
    66    49   105    1
    67    49   106    1
    68    49   107    1
    69    50   108    1
    70    51    59    1
    71    52   109    1
    72    52   110    1
    73    52   111    1
    74    53    54    1
    75    54    55    2
    76    54    56    1
    77    56   112    1
    78    56   113    1
    79    56   114    1
    80    57   115    1
    81    57   116    1
    82    57   117    1
    83    58   118    1
    84    58   119    1
    85    58   120    1
    86    59   121    1
    87    59   122    1
    88    59   123    1
    89    60    61    2
    90     1    47    1
    91     1    62    1
    92     2    63    1
    93     3    64    1
    94     4    65    1
    95     5     6    1
    96     7     8    2
    97     9    78    1
    98    15    79    1
    99    18    80    1
   100    18    81    1
   101    19    82    1
   102    19    83    1
   103    20    23    1
   104    21    84    1
   105    21    85    1
   106    22    86    1
   107    22    87    1
   108    27    45    1
   109    28    34    1
   110    32    58    1
   111    33    46    2
   112    36    51    1
   113    36    66    1
   114    37    52    1
   115    37    67    1
   116    38    53    1
   117    38    68    1
   118    42    48    1
   119    42    72    1
   120    43    44    2
   121    60    73    1
   122    61    74    1
   123    39    69    1
   124    39    57    1
   125    40    70    1
   126    40    50    1
   127    41    71    1
   128    41    49    1
