@<TRIPOS>MOLECULE
*****
 123 128 0 0 0
SMALL
GASTEIGER

@<TRIPOS>ATOM
     1 C         5.167804   1.7466   0.492401 C.3        1 UNL1     0.0009
     2 C         6.604905   2.552401   -0.357578 C.2        1 UNL1     -0.0787
     3 C         7.886818   2.453911   -1.023193 C.2        1 UNL1     -0.0649
     4 C         8.764838   3.688919   -1.778305 C.2        1 UNL1     -0.0542
     5 C         9.785083   3.981448   -2.71671 C.2        1 UNL1     0.0115
     6 C         10.91313   3.355823   -3.582404 C.3        1 UNL1     -0.0348
     7 C         9.881075   5.464852   -3.322753 C.2        1 UNL1     0.2441
     8 O         10.705241   6.286059   -2.944737 O.2        1 UNL1     -0.2702
     9 N         9.131065   5.672473   -4.493449 N.am        1 UNL1     -0.2772
     10 C         7.848468   6.059565   -4.179718 C.2        1 UNL1     0.1049
     11 C         7.002266   5.088397   -3.888174 C.2        1 UNL1     0.0801
     12 C         6.550555   7.666299   -2.768634 C.ar        1 UNL1     0.0753
     13 C         5.791002   6.538547   -2.321572 C.ar        1 UNL1     0.0305
     14 C         5.907489   5.232997   -2.967344 C.2        1 UNL1     0.0924
     15 N         7.124379   3.759419   -4.047655 N.pl3        1 UNL1     -0.3170
     16 C         5.854248   3.160655   -3.733802 C.3        1 UNL1     0.1275
     17 N         5.218117   4.115843   -2.75366 N.2        1 UNL1     -0.2557
     18 C         5.001563   3.220448   -4.997548 C.3        1 UNL1     0.0016
     19 C         5.756299   2.536401   -6.126284 C.3        1 UNL1     0.0026
     20 N         6.025853   1.158075   -5.740815 N.3        1 UNL1     -0.3018
     21 C         6.78901   0.997002   -4.501453 C.3        1 UNL1     0.0026
     22 C         6.010413   1.687489   -3.380333 C.3        1 UNL1     0.0016
     23 C         6.470159   0.3387   -6.850706 C.3        1 UNL1     0.0012
     24 C         5.314724   0.08998   -7.832982 C.3        1 UNL1     -0.0339
     25 C         5.340804   1.093502   -8.997593 C.3        1 UNL1     -0.0615
     26 C         5.353606   -1.344591   -8.330248 C.3        1 UNL1     -0.0615
     27 C         6.346336   8.933909   -2.228656 C.ar        1 UNL1     0.1347
     28 C         5.387279   9.203546   -1.268679 C.ar        1 UNL1     0.0342
     29 C         4.685218   8.069234   -0.808667 C.ar        1 UNL1     0.1435
     30 C         4.90421   6.787273   -1.314472 C.ar        1 UNL1     0.0774
     31 O         3.644179   8.182954   0.044745 O.3        1 UNL1     -0.4436
     32 C         2.922029   6.950462   -0.097865 C.3        1 UNL1     0.3143
     33 C         3.934991   5.957117   -0.630205 C.2        1 UNL1     0.2504
     34 C         4.940933   10.569693   -0.82764 C.3        1 UNL1     -0.0327
     35 O         2.56108   6.51351   1.218205 O.2        1 UNL1     -0.4528
     36 C         -0.682688   4.582726   0.820552 C.3        1 UNL1     0.0854
     37 C         -0.988398   3.32253   -0.077207 C.3        1 UNL1     0.0236
     38 C         -1.589535   2.061489   0.710292 C.3        1 UNL1     0.1131
     39 C         -0.864122   1.529881   2.011614 C.3        1 UNL1     0.0200
     40 C         0.797009   1.383666   2.05291 C.3        1 UNL1     0.0661
     41 C         1.756194   0.614803   0.883968 C.3        1 UNL1     0.0091
     42 C         3.463982   0.976851   0.320246 C.3        1 UNL1     0.0661
     43 C         7.50063   7.458552   -3.889552 C.2        1 UNL1     0.2131
     44 O         7.900942   8.356684   -4.607777 O.2        1 UNL1     -0.2851
     45 O         7.15906   9.96883   -2.686757 O.3        1 UNL1     -0.5056
     46 O         3.95049   4.753538   -0.49978 O.2        1 UNL1     -0.2836
     47 C         5.563851   1.316544   1.930518 C.3        1 UNL1     -0.0566
     48 O         3.911978   -0.434456   0.401664 O.3        1 UNL1     -0.3909
     49 C         0.922039   0.382906   -0.356155 C.3        1 UNL1     -0.0577
     50 O         1.397651   2.601176   2.446131 O.3        1 UNL1     -0.3910
     51 O         -0.806991   4.392695   2.211907 O.3        1 UNL1     -0.3753
     52 C         0.056108   3.16198   -1.229674 C.3        1 UNL1     -0.0564
     53 O         -2.19246   1.023007   -0.189909 O.3        1 UNL1     -0.4608
     54 C         -2.414931   -0.287095   0.144859 C.2        1 UNL1     0.3042
     55 O         -1.842873   -1.279967   -0.303242 O.2        1 UNL1     -0.2512
     56 C         -3.444347   -0.465526   1.224293 C.3        1 UNL1     0.0332
     57 C         -1.585009   2.198796   3.272982 C.3        1 UNL1     -0.0567
     58 C         1.847039   7.196294   -1.182066 C.3        1 UNL1     0.0210
     59 C         -1.150716   5.565258   2.948667 C.3        1 UNL1     0.0372
     60 C         0.646581   5.211347   0.590248 C.2        1 UNL1     -0.0208
     61 C         1.559604   5.645966   1.459868 C.2        1 UNL1     0.0882
     62 H         4.692268   2.730937   0.579905 H        1 UNL1     0.0365
     63 H         6.339067   3.606276   -0.251997 H        1 UNL1     0.0576
     64 H         8.344108   1.486943   -1.244474 H        1 UNL1     0.0615
     65 H         8.278087   4.604411   -1.431272 H        1 UNL1     0.0622
     66 H         -1.427011   5.329639   0.510471 H        1 UNL1     0.0645
     67 H         -1.853765   3.632416   -0.688495 H        1 UNL1     0.0362
     68 H         -2.536464   2.498643   1.062064 H        1 UNL1     0.0741
     69 H         -1.196067   0.51886   2.206695 H        1 UNL1     0.0359
     70 H         0.908437   0.72304   2.933941 H        1 UNL1     0.0600
     71 H         1.799328   -0.406501   1.310623 H        1 UNL1     0.0348
     72 H         3.358203   1.46482   1.300049 H        1 UNL1     0.0602
     73 H         0.764653   5.408843   -0.446238 H        1 UNL1     0.0628
     74 H         1.541874   5.435006   2.529643 H        1 UNL1     0.1022
     75 H         10.957155   2.250483   -3.429696 H        1 UNL1     0.0279
     76 H         10.799632   3.438963   -4.660956 H        1 UNL1     0.0279
     77 H         11.918297   3.660033   -3.255604 H        1 UNL1     0.0279
     78 H         9.068765   4.802697   -5.018508 H        1 UNL1     0.1553
     79 H         7.789535   3.331336   -4.665105 H        1 UNL1     0.1484
     80 H         4.040068   2.729844   -4.80364 H        1 UNL1     0.0317
     81 H         4.775395   4.257368   -5.26828 H        1 UNL1     0.0317
     82 H         6.687197   3.0674   -6.374035 H        1 UNL1     0.0428
     83 H         5.131251   2.592045   -7.018062 H        1 UNL1     0.0428
     84 H         6.908884   -0.046085   -4.192566 H        1 UNL1     0.0428
     85 H         7.819259   1.364652   -4.605073 H        1 UNL1     0.0428
     86 H         6.526653   1.436664   -2.472274 H        1 UNL1     0.0317
     87 H         5.030766   1.210209   -3.255467 H        1 UNL1     0.0317
     88 H         7.266487   0.880325   -7.377771 H        1 UNL1     0.0429
     89 H         6.902343   -0.607344   -6.500005 H        1 UNL1     0.0429
     90 H         4.361856   0.19692   -7.301173 H        1 UNL1     0.0308
     91 H         6.290941   1.050545   -9.538421 H        1 UNL1     0.0233
     92 H         4.522356   0.897983   -9.694389 H        1 UNL1     0.0233
     93 H         5.21375   2.129056   -8.65948 H        1 UNL1     0.0233
     94 H         4.657351   -1.473659   -9.165956 H        1 UNL1     0.0233
     95 H         6.357912   -1.589169   -8.687337 H        1 UNL1     0.0233
     96 H         5.078881   -2.04854   -7.53971 H        1 UNL1     0.0233
     97 H         4.147507   10.520026   -0.087884 H        1 UNL1     0.0280
     98 H         5.753869   11.139282   -0.358641 H        1 UNL1     0.0280
     99 H         4.56756   11.134617   -1.697438 H        1 UNL1     0.0280
     100 H         6.692353   10.719455   -3.009822 H        1 UNL1     0.2922
     101 H         4.700819   0.883109   2.43546 H        1 UNL1     0.0236
     102 H         6.0149   2.121549   2.509745 H        1 UNL1     0.0236
     103 H         6.31978   0.513573   1.929265 H        1 UNL1     0.0236
     104 H         4.331382   -0.560852   1.275217 H        1 UNL1     0.2098
     105 H         0.709802   1.28198   -0.929246 H        1 UNL1     0.0234
     106 H         1.291173   -0.405082   -1.012463 H        1 UNL1     0.0234
     107 H         0.0   -0.0   0.0 H        1 UNL1     0.0234
     108 H         1.199426   3.259697   1.752715 H        1 UNL1     0.2098
     109 H         1.080864   3.047993   -0.849417 H        1 UNL1     0.0234
     110 H         -0.176602   2.335159   -1.909347 H        1 UNL1     0.0234
     111 H         0.077709   4.044964   -1.882222 H        1 UNL1     0.0234
     112 H         -3.569828   -1.529551   1.44667 H        1 UNL1     0.0342
     113 H         -3.195562   0.095002   2.124158 H        1 UNL1     0.0342
     114 H         -4.404203   -0.084343   0.849406 H        1 UNL1     0.0342
     115 H         -2.649281   1.930777   3.324728 H        1 UNL1     0.0234
     116 H         -1.133656   1.937811   4.232261 H        1 UNL1     0.0234
     117 H         -1.645035   3.299131   3.212974 H        1 UNL1     0.0234
     118 H         0.946121   7.683445   -0.769709 H        1 UNL1     0.0309
     119 H         2.216717   7.784362   -2.028067 H        1 UNL1     0.0309
     120 H         1.458137   6.264605   -1.607291 H        1 UNL1     0.0309
     121 H         -0.346186   6.287532   2.812993 H        1 UNL1     0.0524
     122 H         -2.080659   6.031575   2.582892 H        1 UNL1     0.0524
     123 H         -1.266589   5.326722   4.002122 H        1 UNL1     0.0524
@<TRIPOS>BOND
     1     1     2    1
     2     1    42    1
     3     2     3    2
     4     3     4    1
     5     4     5    2
     6     5     7    1
     7     6    75    1
     8     6    76    1
     9     6    77    1
    10     7     9   am
    11     9    10    1
    12    10    11    2
    13    10    43    1
    14    11    14    1
    15    11    15    1
    16    12    13   ar
    17    12    27   ar
    18    12    43    1
    19    13    14    1
    20    13    30   ar
    21    14    17    2
    22    15    16    1
    23    16    17    1
    24    16    18    1
    25    16    22    1
    26    18    19    1
    27    19    20    1
    28    20    21    1
    29    21    22    1
    30    23    24    1
    31    23    88    1
    32    23    89    1
    33    24    25    1
    34    24    26    1
    35    24    90    1
    36    25    91    1
    37    25    92    1
    38    25    93    1
    39    26    94    1
    40    26    95    1
    41    26    96    1
    42    27    28   ar
    43    28    29   ar
    44    29    30   ar
    45    29    31    1
    46    30    33    1
    47    31    32    1
    48    32    33    1
    49    32    35    1
    50    34    97    1
    51    34    98    1
    52    34    99    1
    53    35    61    1
    54    36    37    1
    55    36    60    1
    56    37    38    1
    57    38    39    1
    58    39    40    1
    59    40    41    1
    60    41    42    1
    61    45   100    1
    62    47   101    1
    63    47   102    1
    64    47   103    1
    65    48   104    1
    66    49   105    1
    67    49   106    1
    68    49   107    1
    69    50   108    1
    70    51    59    1
    71    52   109    1
    72    52   110    1
    73    52   111    1
    74    53    54    1
    75    54    55    2
    76    54    56    1
    77    56   112    1
    78    56   113    1
    79    56   114    1
    80    57   115    1
    81    57   116    1
    82    57   117    1
    83    58   118    1
    84    58   119    1
    85    58   120    1
    86    59   121    1
    87    59   122    1
    88    59   123    1
    89    60    61    2
    90     1    47    1
    91     1    62    1
    92     2    63    1
    93     3    64    1
    94     4    65    1
    95     5     6    1
    96     7     8    2
    97     9    78    1
    98    15    79    1
    99    18    80    1
   100    18    81    1
   101    19    82    1
   102    19    83    1
   103    20    23    1
   104    21    84    1
   105    21    85    1
   106    22    86    1
   107    22    87    1
   108    27    45    1
   109    28    34    1
   110    32    58    1
   111    33    46    2
   112    36    51    1
   113    36    66    1
   114    37    52    1
   115    37    67    1
   116    38    53    1
   117    38    68    1
   118    42    48    1
   119    42    72    1
   120    43    44    2
   121    60    73    1
   122    61    74    1
   123    39    69    1
   124    39    57    1
   125    40    70    1
   126    40    50    1
   127    41    71    1
   128    41    49    1
