@<TRIPOS>MOLECULE
*****
 123 128 0 0 0
SMALL
GASTEIGER

@<TRIPOS>ATOM
     1 C         -3.508671   -1.641277   3.472704 C.3        1 UNL1     0.0009
     2 C         -4.444857   -1.163844   5.000006 C.2        1 UNL1     -0.0787
     3 C         -4.523419   -1.050946   6.44123 C.2        1 UNL1     -0.0649
     4 C         -5.75185   -0.339545   7.363849 C.2        1 UNL1     -0.0542
     5 C         -6.082697   0.219386   8.622901 C.2        1 UNL1     0.0115
     6 C         -5.583148   0.416523   10.080609 C.3        1 UNL1     -0.0348
     7 C         -7.389296   1.144228   8.743134 C.2        1 UNL1     0.2441
     8 O         -8.444008   0.747282   9.219099 O.2        1 UNL1     -0.2702
     9 N         -7.166416   2.512058   8.507516 N.am        1 UNL1     -0.2772
     10 C         -7.289526   2.794635   7.166503 C.2        1 UNL1     0.1049
     11 C         -6.224234   2.559861   6.42202 C.2        1 UNL1     0.0801
     12 C         -8.79076   2.447643   5.195912 C.ar        1 UNL1     0.0753
     13 C         -7.629549   1.999386   4.489328 C.ar        1 UNL1     0.0305
     14 C         -6.286641   2.166178   5.040536 C.2        1 UNL1     0.0924
     15 N         -4.959957   2.284301   6.78561 N.pl3        1 UNL1     -0.3170
     16 C         -4.150658   2.284437   5.59595 C.3        1 UNL1     0.1275
     17 N         -5.104604   1.904272   4.489972 N.2        1 UNL1     -0.2557
     18 C         -3.743784   3.729878   5.326032 C.3        1 UNL1     0.0016
     19 C         -3.045221   4.277106   6.560593 C.3        1 UNL1     0.0026
     20 N         -1.881081   3.449444   6.844811 N.3        1 UNL1     -0.3018
     21 C         -2.165339   2.028842   7.058017 C.3        1 UNL1     0.0026
     22 C         -2.862717   1.498655   5.80404 C.3        1 UNL1     0.0016
     23 C         -0.983329   4.051424   7.81037 C.3        1 UNL1     0.0012
     24 C         -0.846991   3.154854   9.051068 C.3        1 UNL1     -0.0339
     25 C         0.622571   2.797194   9.327699 C.3        1 UNL1     -0.0615
     26 C         -1.494855   3.823921   10.250818 C.3        1 UNL1     -0.0615
     27 C         -10.054927   2.395526   4.613431 C.ar        1 UNL1     0.1347
     28 C         -10.276618   1.954209   3.321091 C.ar        1 UNL1     0.0342
     29 C         -9.125654   1.472232   2.662194 C.ar        1 UNL1     0.1435
     30 C         -7.858416   1.484602   3.246295 C.ar        1 UNL1     0.0774
     31 O         -9.157887   1.110988   1.36086 O.3        1 UNL1     -0.4436
     32 C         -7.785624   1.145957   0.940687 C.3        1 UNL1     0.3143
     33 C         -6.977706   0.982757   2.21224 C.2        1 UNL1     0.2504
     34 C         -11.555821   2.103693   2.545596 C.3        1 UNL1     -0.0327
     35 O         -7.553537   -0.023564   0.145949 O.2        1 UNL1     -0.4528
     36 C         -4.860227   0.93322   -2.351797 C.3        1 UNL1     0.0854
     37 C         -3.407281   1.486778   -2.087137 C.3        1 UNL1     0.0236
     38 C         -2.227349   0.641294   -2.768798 C.3        1 UNL1     0.1131
     39 C         -2.163627   -0.925694   -2.562021 C.3        1 UNL1     0.0200
     40 C         -2.432733   -1.590819   -1.056156 C.3        1 UNL1     0.0661
     41 C         -1.694622   -1.103895   0.391499 C.3        1 UNL1     0.0091
     42 C         -2.33341   -1.102563   2.111194 C.3        1 UNL1     0.0661
     43 C         -8.592702   3.053138   6.536214 C.2        1 UNL1     0.2131
     44 O         -9.394177   3.805496   7.05998 O.2        1 UNL1     -0.2851
     45 O         -11.138581   2.80867   5.385729 O.3        1 UNL1     -0.5056
     46 O         -5.866102   0.521639   2.344756 O.2        1 UNL1     -0.2836
     47 C         -3.490109   -3.185251   3.31214 C.3        1 UNL1     -0.0566
     48 O         -1.118662   -1.73138   2.683987 O.3        1 UNL1     -0.3909
     49 C         -1.020267   0.231694   0.170273 C.3        1 UNL1     -0.0577
     50 O         -3.812847   -1.810608   -0.844728 O.3        1 UNL1     -0.3910
     51 O         -4.934736   -0.317477   -2.998045 O.3        1 UNL1     -0.3753
     52 C         -3.270254   2.100344   -0.655457 C.3        1 UNL1     -0.0564
     53 O         -0.912815   1.364574   -2.803363 O.3        1 UNL1     -0.4608
     54 C         -0.221033   1.809506   -1.707278 C.2        1 UNL1     0.3042
     55 O         0.953567   1.580121   -1.421733 O.2        1 UNL1     -0.2512
     56 C         -1.021347   2.719753   -0.819774 C.3        1 UNL1     0.0332
     57 C         -2.883111   -1.607455   -3.817298 C.3        1 UNL1     -0.0567
     58 C         -7.538563   2.562261   0.370974 C.3        1 UNL1     0.0210
     59 C         -4.414507   -0.337658   -4.326511 C.3        1 UNL1     0.0372
     60 C         -5.729171   0.846078   -1.146598 C.2        1 UNL1     -0.0208
     61 C         -6.539028   -0.129756   -0.733529 C.2        1 UNL1     0.0882
     62 H         -4.346232   -1.273769   2.867608 H        1 UNL1     0.0365
     63 H         -5.402517   -0.866968   4.567315 H        1 UNL1     0.0576
     64 H         -3.670577   -1.287783   7.08129 H        1 UNL1     0.0615
     65 H         -6.574496   -0.218976   6.653779 H        1 UNL1     0.0622
     66 H         -5.326528   1.683425   -3.005863 H        1 UNL1     0.0645
     67 H         -3.368169   2.425227   -2.667088 H        1 UNL1     0.0362
     68 H         -2.48645   0.785422   -3.828805 H        1 UNL1     0.0741
     69 H         -1.164426   -1.267408   -2.797044 H        1 UNL1     0.0359
     70 H         -2.012969   -2.602299   -1.216679 H        1 UNL1     0.0600
     71 H         -0.82323   -1.787625   0.403673 H        1 UNL1     0.0348
     72 H         -2.971479   -1.801574   1.551225 H        1 UNL1     0.0602
     73 H         -5.732864   1.784547   -0.6501 H        1 UNL1     0.0628
     74 H         -6.553498   -1.137176   -1.15082 H        1 UNL1     0.1022
     75 H         -4.642108   1.017589   10.094607 H        1 UNL1     0.0279
     76 H         -6.232968   0.983228   10.743669 H        1 UNL1     0.0279
     77 H         -5.24787   -0.522011   10.545844 H        1 UNL1     0.0279
     78 H         -6.218708   2.757215   8.786489 H        1 UNL1     0.1553
     79 H         -4.58735   2.479293   7.696694 H        1 UNL1     0.1484
     80 H         -3.086776   3.758417   4.448369 H        1 UNL1     0.0317
     81 H         -4.617891   4.343617   5.083313 H        1 UNL1     0.0317
     82 H         -3.722184   4.318795   7.426558 H        1 UNL1     0.0428
     83 H         -2.765257   5.30914   6.34711 H        1 UNL1     0.0428
     84 H         -1.267631   1.416897   7.190137 H        1 UNL1     0.0428
     85 H         -2.740687   1.860807   7.978917 H        1 UNL1     0.0428
     86 H         -2.934654   0.435529   5.940336 H        1 UNL1     0.0317
     87 H         -2.19986   1.59895   4.935905 H        1 UNL1     0.0317
     88 H         0.004383   4.15227   7.341808 H        1 UNL1     0.0429
     89 H         -1.313184   5.061384   8.085961 H        1 UNL1     0.0429
     90 H         -1.407295   2.226782   8.88689 H        1 UNL1     0.0308
     91 H         1.203704   3.684025   9.597732 H        1 UNL1     0.0233
     92 H         0.696279   2.061516   10.132033 H        1 UNL1     0.0233
     93 H         1.114188   2.347883   8.456339 H        1 UNL1     0.0233
     94 H         -1.865315   4.817162   9.975012 H        1 UNL1     0.0233
     95 H         -2.34626   3.230203   10.59516 H        1 UNL1     0.0233
     96 H         -0.786087   3.936327   11.076034 H        1 UNL1     0.0233
     97 H         -11.414458   1.913433   1.485856 H        1 UNL1     0.0280
     98 H         -12.32633   1.395761   2.877866 H        1 UNL1     0.0280
     99 H         -11.941486   3.12952   2.664076 H        1 UNL1     0.0280
     100 H         -10.906641   3.294024   6.157907 H        1 UNL1     0.2922
     101 H         -4.147894   -3.639839   4.05263 H        1 UNL1     0.0236
     102 H         -2.486189   -3.607367   3.342881 H        1 UNL1     0.0236
     103 H         -3.899925   -3.505441   2.339658 H        1 UNL1     0.0236
     104 H         -1.120744   -2.67208   2.419318 H        1 UNL1     0.2098
     105 H         -1.385269   0.781467   -0.693634 H        1 UNL1     0.0234
     106 H         -0.993936   0.879221   1.046596 H        1 UNL1     0.0234
     107 H         0.0   0.0   0.0 H        1 UNL1     0.0234
     108 H         -4.288454   -1.418277   -1.60212 H        1 UNL1     0.2098
     109 H         -3.619382   1.412322   0.127133 H        1 UNL1     0.0234
     110 H         -2.251952   2.431344   -0.424711 H        1 UNL1     0.0234
     111 H         -3.877015   3.008931   -0.544745 H        1 UNL1     0.0234
     112 H         -1.518041   2.135889   -0.038913 H        1 UNL1     0.0342
     113 H         -0.410679   3.510886   -0.387296 H        1 UNL1     0.0342
     114 H         -1.800239   3.196672   -1.430543 H        1 UNL1     0.0342
     115 H         -2.324593   -1.440284   -4.748587 H        1 UNL1     0.0234
     116 H         -3.03245   -2.683934   -3.712702 H        1 UNL1     0.0234
     117 H         -3.856359   -1.151356   -4.067701 H        1 UNL1     0.0234
     118 H         -6.859231   3.153411   1.009766 H        1 UNL1     0.0309
     119 H         -7.149602   2.551959   -0.652161 H        1 UNL1     0.0309
     120 H         -8.450316   3.168901   0.342667 H        1 UNL1     0.0309
     121 H         -4.441297   0.683204   -4.706615 H        1 UNL1     0.0524
     122 H         -3.365798   -0.676956   -4.360028 H        1 UNL1     0.0524
     123 H         -5.015716   -0.987815   -4.955747 H        1 UNL1     0.0524
@<TRIPOS>BOND
     1     1     2    1
     2     1    42    1
     3     2     3    2
     4     3     4    1
     5     4     5    2
     6     5     7    1
     7     6    75    1
     8     6    76    1
     9     6    77    1
    10     7     9   am
    11     9    10    1
    12    10    11    2
    13    10    43    1
    14    11    14    1
    15    11    15    1
    16    12    13   ar
    17    12    27   ar
    18    12    43    1
    19    13    14    1
    20    13    30   ar
    21    14    17    2
    22    15    16    1
    23    16    17    1
    24    16    18    1
    25    16    22    1
    26    18    19    1
    27    19    20    1
    28    20    21    1
    29    21    22    1
    30    23    24    1
    31    23    88    1
    32    23    89    1
    33    24    25    1
    34    24    26    1
    35    24    90    1
    36    25    91    1
    37    25    92    1
    38    25    93    1
    39    26    94    1
    40    26    95    1
    41    26    96    1
    42    27    28   ar
    43    28    29   ar
    44    29    30   ar
    45    29    31    1
    46    30    33    1
    47    31    32    1
    48    32    33    1
    49    32    35    1
    50    34    97    1
    51    34    98    1
    52    34    99    1
    53    35    61    1
    54    36    37    1
    55    36    60    1
    56    37    38    1
    57    38    39    1
    58    39    40    1
    59    40    41    1
    60    41    42    1
    61    45   100    1
    62    47   101    1
    63    47   102    1
    64    47   103    1
    65    48   104    1
    66    49   105    1
    67    49   106    1
    68    49   107    1
    69    50   108    1
    70    51    59    1
    71    52   109    1
    72    52   110    1
    73    52   111    1
    74    53    54    1
    75    54    55    2
    76    54    56    1
    77    56   112    1
    78    56   113    1
    79    56   114    1
    80    57   115    1
    81    57   116    1
    82    57   117    1
    83    58   118    1
    84    58   119    1
    85    58   120    1
    86    59   121    1
    87    59   122    1
    88    59   123    1
    89    60    61    2
    90     1    47    1
    91     1    62    1
    92     2    63    1
    93     3    64    1
    94     4    65    1
    95     5     6    1
    96     7     8    2
    97     9    78    1
    98    15    79    1
    99    18    80    1
   100    18    81    1
   101    19    82    1
   102    19    83    1
   103    20    23    1
   104    21    84    1
   105    21    85    1
   106    22    86    1
   107    22    87    1
   108    27    45    1
   109    28    34    1
   110    32    58    1
   111    33    46    2
   112    36    51    1
   113    36    66    1
   114    37    52    1
   115    37    67    1
   116    38    53    1
   117    38    68    1
   118    42    48    1
   119    42    72    1
   120    43    44    2
   121    60    73    1
   122    61    74    1
   123    39    69    1
   124    39    57    1
   125    40    70    1
   126    40    50    1
   127    41    71    1
   128    41    49    1
