@<TRIPOS>MOLECULE
*****
 123 128 0 0 0
SMALL
GASTEIGER

@<TRIPOS>ATOM
     1 C         0.217872   1.39084   3.952693 C.3        1 UNL1     0.0009
     2 C         -1.018189   1.126063   5.308822 C.2        1 UNL1     -0.0787
     3 C         -2.093598   1.620817   6.142344 C.2        1 UNL1     -0.0649
     4 C         -3.01525   0.759778   7.271737 C.2        1 UNL1     -0.0542
     5 C         -4.226165   0.737122   8.006752 C.2        1 UNL1     0.0115
     6 C         -5.473318   1.575743   8.400004 C.3        1 UNL1     -0.0348
     7 C         -4.718289   -0.648593   8.650645 C.2        1 UNL1     0.2441
     8 O         -4.592149   -0.912287   9.838534 O.2        1 UNL1     -0.2702
     9 N         -5.536413   -1.428653   7.814983 N.am        1 UNL1     -0.2772
     10 C         -4.768702   -2.255551   7.027467 C.2        1 UNL1     0.1049
     11 C         -4.272246   -1.716681   5.928662 C.2        1 UNL1     0.0801
     12 C         -2.881418   -3.894593   7.122517 C.ar        1 UNL1     0.0753
     13 C         -2.281131   -3.1458   6.060645 C.ar        1 UNL1     0.0305
     14 C         -3.020071   -2.110331   5.341741 C.2        1 UNL1     0.0924
     15 N         -4.560323   -0.546076   5.334338 N.pl3        1 UNL1     -0.3170
     16 C         -3.868436   -0.511554   4.073245 C.3        1 UNL1     0.1275
     17 N         -2.661571   -1.393824   4.280129 N.2        1 UNL1     -0.2557
     18 C         -4.748535   -1.229857   3.05483 C.3        1 UNL1     0.0016
     19 C         -6.115871   -0.565225   3.03912 C.3        1 UNL1     0.0026
     20 N         -5.949495   0.838854   2.689964 N.3        1 UNL1     -0.3018
     21 C         -5.068386   1.600136   3.57792 C.3        1 UNL1     0.0026
     22 C         -3.699397   0.917675   3.57497 C.3        1 UNL1     0.0016
     23 C         -7.201012   1.488995   2.355802 C.3        1 UNL1     0.0012
     24 C         -7.735073   0.970596   1.011258 C.3        1 UNL1     -0.0339
     25 C         -9.020776   0.147939   1.196354 C.3        1 UNL1     -0.0615
     26 C         -7.946274   2.129829   0.052951 C.3        1 UNL1     -0.0615
     27 C         -2.213583   -4.96009   7.721542 C.ar        1 UNL1     0.1347
     28 C         -0.962971   -5.393647   7.31899 C.ar        1 UNL1     0.0342
     29 C         -0.371064   -4.610918   6.305015 C.ar        1 UNL1     0.1435
     30 C         -1.013143   -3.518581   5.720417 C.ar        1 UNL1     0.0774
     31 O         0.797151   -4.96973   5.729226 O.3        1 UNL1     -0.4436
     32 C         0.825665   -4.249781   4.48756 C.3        1 UNL1     0.3143
     33 C         -0.096566   -3.06545   4.695075 C.2        1 UNL1     0.2504
     34 C         -0.296192   -6.673885   7.739103 C.3        1 UNL1     -0.0327
     35 O         2.14964   -3.72495   4.329779 O.2        1 UNL1     -0.4528
     36 C         2.766618   -3.565107   0.58787 C.3        1 UNL1     0.0854
     37 C         1.942376   -2.812642   -0.526555 C.3        1 UNL1     0.0236
     38 C         2.796049   -1.799918   -1.430645 C.3        1 UNL1     0.1131
     39 C         3.721295   -0.719203   -0.739092 C.3        1 UNL1     0.0200
     40 C         3.171177   0.146818   0.576133 C.3        1 UNL1     0.0661
     41 C         1.68895   0.96559   0.67726 C.3        1 UNL1     0.0091
     42 C         0.594015   1.27108   2.117119 C.3        1 UNL1     0.0661
     43 C         -4.274837   -3.555888   7.504516 C.2        1 UNL1     0.2131
     44 O         -5.020228   -4.325732   8.082849 O.2        1 UNL1     -0.2851
     45 O         -2.849435   -5.607486   8.778902 O.3        1 UNL1     -0.5056
     46 O         -0.067467   -1.983574   4.152349 O.2        1 UNL1     -0.2836
     47 C         1.392976   2.270333   4.458265 C.3        1 UNL1     -0.0566
     48 O         0.411707   2.71193   1.817398 O.3        1 UNL1     -0.3909
     49 C         0.803298   0.514127   -0.462607 C.3        1 UNL1     -0.0577
     50 O         3.4181   -0.5556   1.777533 O.3        1 UNL1     -0.3910
     51 O         4.096536   -3.133332   0.767646 O.3        1 UNL1     -0.3753
     52 C         0.490035   -2.480727   -0.051701 C.3        1 UNL1     -0.0564
     53 O         2.089063   -1.371038   -2.683066 O.3        1 UNL1     -0.4608
     54 C         2.146191   -0.120127   -3.239741 C.2        1 UNL1     0.3042
     55 O         1.458002   0.858036   -2.950897 O.2        1 UNL1     -0.2512
     56 C         3.225596   0.029231   -4.273806 C.3        1 UNL1     0.0332
     57 C         5.19972   -1.325196   -0.666931 C.3        1 UNL1     -0.0567
     58 C         0.204259   -5.185762   3.424864 C.3        1 UNL1     0.0210
     59 C         5.090585   -4.041439   0.29534 C.3        1 UNL1     0.0372
     60 C         2.134408   -3.58028   1.93518 C.2        1 UNL1     -0.0208
     61 C         2.661037   -3.355761   3.139753 C.2        1 UNL1     0.0882
     62 H         0.536642   0.347607   4.065665 H        1 UNL1     0.0365
     63 H         -0.750451   0.118729   5.634497 H        1 UNL1     0.0576
     64 H         -2.529794   2.610057   5.986633 H        1 UNL1     0.0615
     65 H         -2.455002   -0.168661   7.411762 H        1 UNL1     0.0622
     66 H         2.790074   -4.612092   0.254226 H        1 UNL1     0.0645
     67 H         1.694689   -3.602935   -1.256382 H        1 UNL1     0.0362
     68 H         3.486134   -2.514073   -1.905288 H        1 UNL1     0.0741
     69 H         3.945727   0.057839   -1.457593 H        1 UNL1     0.0359
     70 H         3.907895   0.972813   0.582235 H        1 UNL1     0.0600
     71 H         1.998548   1.969778   0.326954 H        1 UNL1     0.0348
     72 H         1.58206   1.027291   2.53383 H        1 UNL1     0.0602
     73 H         1.138887   -3.939303   1.84981 H        1 UNL1     0.0628
     74 H         3.651775   -2.933291   3.310618 H        1 UNL1     0.1022
     75 H         -5.466147   2.559964   7.872471 H        1 UNL1     0.0279
     76 H         -6.441246   1.166575   8.11935 H        1 UNL1     0.0279
     77 H         -5.457163   1.893894   9.452724 H        1 UNL1     0.0279
     78 H         -6.068657   -0.822159   7.194533 H        1 UNL1     0.1553
     79 H         -5.400011   -0.024913   5.508255 H        1 UNL1     0.1484
     80 H         -4.268311   -1.181398   2.070044 H        1 UNL1     0.0317
     81 H         -4.847563   -2.291971   3.303341 H        1 UNL1     0.0317
     82 H         -6.632838   -0.674629   4.003842 H        1 UNL1     0.0428
     83 H         -6.727824   -1.094032   2.307734 H        1 UNL1     0.0428
     84 H         -4.897151   2.629735   3.248655 H        1 UNL1     0.0428
     85 H         -5.497078   1.709476   4.583696 H        1 UNL1     0.0428
     86 H         -3.048534   1.571911   4.124825 H        1 UNL1     0.0317
     87 H         -3.27642   0.930646   2.563032 H        1 UNL1     0.0317
     88 H         -7.931442   1.246747   3.138797 H        1 UNL1     0.0429
     89 H         -7.092336   2.581162   2.344146 H        1 UNL1     0.0429
     90 H         -6.975611   0.331479   0.545468 H        1 UNL1     0.0308
     91 H         -9.723396   0.653291   1.865716 H        1 UNL1     0.0233
     92 H         -9.507046   -0.0305   0.234424 H        1 UNL1     0.0233
     93 H         -8.825236   -0.841027   1.628261 H        1 UNL1     0.0233
     94 H         -8.662511   1.849473   -0.726946 H        1 UNL1     0.0233
     95 H         -8.353662   2.99017   0.591292 H        1 UNL1     0.0233
     96 H         -7.009751   2.425605   -0.4281 H        1 UNL1     0.0233
     97 H         -0.060153   -7.30811   6.889824 H        1 UNL1     0.0280
     98 H         0.65655   -6.494579   8.254262 H        1 UNL1     0.0280
     99 H         -0.964451   -7.23399   8.413497 H        1 UNL1     0.0280
     100 H         -3.417171   -6.312576   8.521714 H        1 UNL1     0.2922
     101 H         2.259315   2.133617   3.811411 H        1 UNL1     0.0236
     102 H         1.634807   2.10098   5.506989 H        1 UNL1     0.0236
     103 H         1.162339   3.346802   4.393347 H        1 UNL1     0.0236
     104 H         1.127831   3.200037   2.268937 H        1 UNL1     0.2098
     105 H         0.383521   1.32448   -1.053306 H        1 UNL1     0.0234
     106 H         1.247996   -0.237576   -1.114614 H        1 UNL1     0.0234
     107 H         0.0   -0.0   0.0 H        1 UNL1     0.0234
     108 H         4.178589   -1.146869   1.616826 H        1 UNL1     0.2098
     109 H         -0.083661   -3.384897   0.195404 H        1 UNL1     0.0234
     110 H         0.462166   -1.786316   0.794916 H        1 UNL1     0.0234
     111 H         -0.084787   -1.968786   -0.834928 H        1 UNL1     0.0234
     112 H         2.836619   0.569021   -5.142523 H        1 UNL1     0.0342
     113 H         4.111336   0.520047   -3.873297 H        1 UNL1     0.0342
     114 H         3.523154   -0.974685   -4.606637 H        1 UNL1     0.0342
     115 H         5.966379   -0.54223   -0.746847 H        1 UNL1     0.0234
     116 H         5.403136   -1.892214   0.243652 H        1 UNL1     0.0234
     117 H         5.456162   -1.963418   -1.529979 H        1 UNL1     0.0234
     118 H         0.955204   -5.54697   2.70056 H        1 UNL1     0.0309
     119 H         -0.315529   -6.045021   3.860406 H        1 UNL1     0.0309
     120 H         -0.530736   -4.675064   2.79314 H        1 UNL1     0.0309
     121 H         6.000963   -3.859666   0.865891 H        1 UNL1     0.0524
     122 H         4.804284   -5.09453   0.453669 H        1 UNL1     0.0524
     123 H         5.273468   -3.881135   -0.763409 H        1 UNL1     0.0524
@<TRIPOS>BOND
     1     1     2    1
     2     1    42    1
     3     2     3    2
     4     3     4    1
     5     4     5    2
     6     5     7    1
     7     6    75    1
     8     6    76    1
     9     6    77    1
    10     7     9   am
    11     9    10    1
    12    10    11    2
    13    10    43    1
    14    11    14    1
    15    11    15    1
    16    12    13   ar
    17    12    27   ar
    18    12    43    1
    19    13    14    1
    20    13    30   ar
    21    14    17    2
    22    15    16    1
    23    16    17    1
    24    16    18    1
    25    16    22    1
    26    18    19    1
    27    19    20    1
    28    20    21    1
    29    21    22    1
    30    23    24    1
    31    23    88    1
    32    23    89    1
    33    24    25    1
    34    24    26    1
    35    24    90    1
    36    25    91    1
    37    25    92    1
    38    25    93    1
    39    26    94    1
    40    26    95    1
    41    26    96    1
    42    27    28   ar
    43    28    29   ar
    44    29    30   ar
    45    29    31    1
    46    30    33    1
    47    31    32    1
    48    32    33    1
    49    32    35    1
    50    34    97    1
    51    34    98    1
    52    34    99    1
    53    35    61    1
    54    36    37    1
    55    36    60    1
    56    37    38    1
    57    38    39    1
    58    39    40    1
    59    40    41    1
    60    41    42    1
    61    45   100    1
    62    47   101    1
    63    47   102    1
    64    47   103    1
    65    48   104    1
    66    49   105    1
    67    49   106    1
    68    49   107    1
    69    50   108    1
    70    51    59    1
    71    52   109    1
    72    52   110    1
    73    52   111    1
    74    53    54    1
    75    54    55    2
    76    54    56    1
    77    56   112    1
    78    56   113    1
    79    56   114    1
    80    57   115    1
    81    57   116    1
    82    57   117    1
    83    58   118    1
    84    58   119    1
    85    58   120    1
    86    59   121    1
    87    59   122    1
    88    59   123    1
    89    60    61    2
    90     1    47    1
    91     1    62    1
    92     2    63    1
    93     3    64    1
    94     4    65    1
    95     5     6    1
    96     7     8    2
    97     9    78    1
    98    15    79    1
    99    18    80    1
   100    18    81    1
   101    19    82    1
   102    19    83    1
   103    20    23    1
   104    21    84    1
   105    21    85    1
   106    22    86    1
   107    22    87    1
   108    27    45    1
   109    28    34    1
   110    32    58    1
   111    33    46    2
   112    36    51    1
   113    36    66    1
   114    37    52    1
   115    37    67    1
   116    38    53    1
   117    38    68    1
   118    42    48    1
   119    42    72    1
   120    43    44    2
   121    60    73    1
   122    61    74    1
   123    39    69    1
   124    39    57    1
   125    40    70    1
   126    40    50    1
   127    41    71    1
   128    41    49    1
