@<TRIPOS>MOLECULE
*****
 123 128 0 0 0
SMALL
GASTEIGER

@<TRIPOS>ATOM
     1 C         4.96813   2.247515   0.527601 C.3        1 UNL1     0.0009
     2 C         6.352517   3.128892   -0.334771 C.2        1 UNL1     -0.0787
     3 C         7.664338   3.111384   -0.947032 C.2        1 UNL1     -0.0649
     4 C         8.446522   4.368793   -1.767684 C.2        1 UNL1     -0.0542
     5 C         9.470834   4.691952   -2.691496 C.2        1 UNL1     0.0115
     6 C         10.690048   4.120804   -3.4665 C.3        1 UNL1     -0.0348
     7 C         9.444774   6.127447   -3.409594 C.2        1 UNL1     0.2441
     8 O         10.167398   7.054406   -3.070347 O.2        1 UNL1     -0.2702
     9 N         8.727027   6.168764   -4.617602 N.am        1 UNL1     -0.2772
     10 C         7.400574   6.44593   -4.378808 C.2        1 UNL1     0.1049
     11 C         6.643143   5.418496   -4.039839 C.2        1 UNL1     0.0801
     12 C         5.892943   8.014156   -3.143879 C.ar        1 UNL1     0.0753
     13 C         5.230697   6.851948   -2.634651 C.ar        1 UNL1     0.0305
     14 C         5.502258   5.520037   -3.170674 C.2        1 UNL1     0.0924
     15 N         6.902482   4.100611   -4.08933 N.pl3        1 UNL1     -0.3170
     16 C         5.685838   3.401139   -3.771887 C.3        1 UNL1     0.1275
     17 N         4.918404   4.357873   -2.892439 N.2        1 UNL1     -0.2557
     18 C         4.884467   3.278352   -5.064338 C.3        1 UNL1     0.0016
     19 C         5.74918   2.591429   -6.109325 C.3        1 UNL1     0.0026
     20 N         6.13743   1.28071   -5.607023 N.3        1 UNL1     -0.3018
     21 C         6.860805   1.292084   -4.333851 C.3        1 UNL1     0.0026
     22 C         5.972047   1.982393   -3.297764 C.3        1 UNL1     0.0016
     23 C         6.706093   0.429389   -6.632947 C.3        1 UNL1     0.0012
     24 C         5.622549   -0.008987   -7.630702 C.3        1 UNL1     -0.0339
     25 C         5.883859   -1.430091   -8.156283 C.3        1 UNL1     -0.0615
     26 C         4.249236   0.107268   -6.992521 C.3        1 UNL1     -0.0615
     27 C         5.542283   9.291525   -2.7132 C.ar        1 UNL1     0.1347
     28 C         4.522362   9.533856   -1.810379 C.ar        1 UNL1     0.0342
     29 C         3.91739   8.371966   -1.285797 C.ar        1 UNL1     0.1435
     30 C         4.28274   7.084444   -1.680797 C.ar        1 UNL1     0.0774
     31 O         2.835777   8.443256   -0.479548 O.3        1 UNL1     -0.4436
     32 C         2.24548   7.136466   -0.548248 C.3        1 UNL1     0.3143
     33 C         3.372809   6.214003   -0.965868 C.2        1 UNL1     0.2504
     34 C         3.925327   10.876871   -1.494215 C.3        1 UNL1     -0.0327
     35 O         1.875306   6.765613   0.785428 O.2        1 UNL1     -0.4528
     36 C         -1.142533   4.490381   0.433212 C.3        1 UNL1     0.0854
     37 C         -1.284789   3.141497   -0.371646 C.3        1 UNL1     0.0236
     38 C         -1.790452   1.888876   0.492641 C.3        1 UNL1     0.1131
     39 C         -1.070552   1.533534   1.855632 C.3        1 UNL1     0.0200
     40 C         0.593757   1.560602   1.964185 C.3        1 UNL1     0.0661
     41 C         1.671788   0.807311   0.892733 C.3        1 UNL1     0.0091
     42 C         3.357306   1.297644   0.359811 C.3        1 UNL1     0.0661
     43 C         6.90448   7.820159   -4.21225 C.2        1 UNL1     0.2131
     44 O         7.243468   8.697589   -4.985515 O.2        1 UNL1     -0.2851
     45 O         6.267024   10.366225   -3.224285 O.3        1 UNL1     -0.5056
     46 O         3.501755   5.031535   -0.740047 O.2        1 UNL1     -0.2836
     47 C         5.344861   1.969723   2.007765 C.3        1 UNL1     -0.0566
     48 O         3.938816   -0.050578   0.5678 O.3        1 UNL1     -0.3909
     49 C         0.916688   0.398851   -0.352449 C.3        1 UNL1     -0.0577
     50 O         1.054351   2.85908   2.27967 O.3        1 UNL1     -0.3910
     51 O         -1.304939   4.394217   1.830283 O.3        1 UNL1     -0.3753
     52 C         -0.182722   3.001542   -1.472013 C.3        1 UNL1     -0.0564
     53 O         -2.250021   0.729498   -0.342204 O.3        1 UNL1     -0.4608
     54 C         -2.365612   -0.565589   0.090599 C.2        1 UNL1     0.3042
     55 O         -1.594757   -1.498656   -0.130776 O.2        1 UNL1     -0.2512
     56 C         -3.556572   -0.799848   0.975726 C.3        1 UNL1     0.0332
     57 C         -1.905606   2.218898   3.035095 C.3        1 UNL1     -0.0567
     58 C         1.197266   7.189152   -1.684031 C.3        1 UNL1     0.0210
     59 C         -2.520819   4.947332   2.331847 C.3        1 UNL1     0.0372
     60 C         0.126499   5.231792   0.198629 C.2        1 UNL1     -0.0208
     61 C         0.95532   5.821408   1.061272 C.2        1 UNL1     0.0882
     62 H         4.394437   3.182151   0.52081 H        1 UNL1     0.0365
     63 H         5.979696   4.155202   -0.322014 H        1 UNL1     0.0576
     64 H         8.223711   2.182028   -1.075511 H        1 UNL1     0.0615
     65 H         7.857739   5.253578   -1.51083 H        1 UNL1     0.0622
     66 H         -1.943544   5.132162   0.04009 H        1 UNL1     0.0645
     67 H         -2.150492   3.314728   -1.0343 H        1 UNL1     0.0362
     68 H         -2.789691   2.252718   0.776648 H        1 UNL1     0.0741
     69 H         -1.308754   0.511605   2.118937 H        1 UNL1     0.0359
     70 H         0.733354   0.983108   2.898034 H        1 UNL1     0.0600
     71 H         1.797936   -0.169188   1.400172 H        1 UNL1     0.0348
     72 H         3.163355   1.844851   1.293762 H        1 UNL1     0.0602
     73 H         0.267282   5.361504   -0.84569 H        1 UNL1     0.0628
     74 H         0.914254   5.69106   2.143197 H        1 UNL1     0.1022
     75 H         11.349619   3.534263   -2.782417 H        1 UNL1     0.0279
     76 H         10.471424   3.402803   -4.25374 H        1 UNL1     0.0279
     77 H         11.379268   4.904965   -3.812575 H        1 UNL1     0.0279
     78 H         8.772771   5.260039   -5.073894 H        1 UNL1     0.1553
     79 H         7.631672   3.697055   -4.648219 H        1 UNL1     0.1484
     80 H         3.968959   2.708516   -4.864593 H        1 UNL1     0.0317
     81 H         4.568341   4.263485   -5.423821 H        1 UNL1     0.0317
     82 H         6.632504   3.19416   -6.366943 H        1 UNL1     0.0428
     83 H         5.159148   2.515751   -7.023209 H        1 UNL1     0.0428
     84 H         7.070279   0.292899   -3.939438 H        1 UNL1     0.0428
     85 H         7.853084   1.753763   -4.431592 H        1 UNL1     0.0428
     86 H         6.472511   1.854621   -2.355851 H        1 UNL1     0.0317
     87 H         5.040034   1.418718   -3.168469 H        1 UNL1     0.0317
     88 H         7.466134   1.007896   -7.174206 H        1 UNL1     0.0429
     89 H         7.214758   -0.438608   -6.194067 H        1 UNL1     0.0429
     90 H         5.616913   0.682474   -8.481621 H        1 UNL1     0.0308
     91 H         6.137474   -2.115054   -7.341662 H        1 UNL1     0.0233
     92 H         5.008949   -1.812566   -8.687183 H        1 UNL1     0.0233
     93 H         6.714729   -1.464704   -8.87133 H        1 UNL1     0.0233
     94 H         3.535102   -0.540486   -7.51239 H        1 UNL1     0.0233
     95 H         4.29469   -0.211548   -5.947413 H        1 UNL1     0.0233
     96 H         3.876401   1.134586   -7.032285 H        1 UNL1     0.0233
     97 H         4.576769   11.692827   -1.792663 H        1 UNL1     0.0280
     98 H         2.976212   11.042113   -2.020647 H        1 UNL1     0.0280
     99 H         3.747779   10.95561   -0.409148 H        1 UNL1     0.0280
     100 H         6.053486   11.199426   -2.842446 H        1 UNL1     0.2922
     101 H         4.472762   2.120557   2.643649 H        1 UNL1     0.0236
     102 H         6.203529   2.547979   2.347311 H        1 UNL1     0.0236
     103 H         5.632048   0.917636   2.171564 H        1 UNL1     0.0236
     104 H         4.253566   -0.096703   1.491799 H        1 UNL1     0.2098
     105 H         0.685092   1.219542   -1.02672 H        1 UNL1     0.0234
     106 H         1.361977   -0.429052   -0.90401 H        1 UNL1     0.0234
     107 H         0.0   -0.0   0.0 H        1 UNL1     0.0234
     108 H         0.966767   2.971171   3.245865 H        1 UNL1     0.2098
     109 H         -0.232901   3.808766   -2.216045 H        1 UNL1     0.0234
     110 H         0.830993   2.944491   -1.061072 H        1 UNL1     0.0234
     111 H         -0.293116   2.067517   -2.038897 H        1 UNL1     0.0234
     112 H         -3.753835   -1.873011   1.057903 H        1 UNL1     0.0342
     113 H         -3.43093   -0.349264   1.959104 H        1 UNL1     0.0342
     114 H         -4.431706   -0.331687   0.504418 H        1 UNL1     0.0342
     115 H         -2.971884   1.9586   2.985249 H        1 UNL1     0.0234
     116 H         -1.551742   1.963685   4.035943 H        1 UNL1     0.0234
     117 H         -1.951086   3.319017   2.960189 H        1 UNL1     0.0234
     118 H         1.623821   7.580881   -2.624034 H        1 UNL1     0.0309
     119 H         0.727457   6.220165   -1.880364 H        1 UNL1     0.0309
     120 H         0.378885   7.884882   -1.468816 H        1 UNL1     0.0309
     121 H         -2.348464   5.237073   3.368042 H        1 UNL1     0.0524
     122 H         -2.827561   5.851943   1.780825 H        1 UNL1     0.0524
     123 H         -3.319144   4.212731   2.275875 H        1 UNL1     0.0524
@<TRIPOS>BOND
     1     1     2    1
     2     1    42    1
     3     2     3    2
     4     3     4    1
     5     4     5    2
     6     5     7    1
     7     6    75    1
     8     6    76    1
     9     6    77    1
    10     7     9   am
    11     9    10    1
    12    10    11    2
    13    10    43    1
    14    11    14    1
    15    11    15    1
    16    12    13   ar
    17    12    27   ar
    18    12    43    1
    19    13    14    1
    20    13    30   ar
    21    14    17    2
    22    15    16    1
    23    16    17    1
    24    16    18    1
    25    16    22    1
    26    18    19    1
    27    19    20    1
    28    20    21    1
    29    21    22    1
    30    23    24    1
    31    23    88    1
    32    23    89    1
    33    24    25    1
    34    24    26    1
    35    24    90    1
    36    25    91    1
    37    25    92    1
    38    25    93    1
    39    26    94    1
    40    26    95    1
    41    26    96    1
    42    27    28   ar
    43    28    29   ar
    44    29    30   ar
    45    29    31    1
    46    30    33    1
    47    31    32    1
    48    32    33    1
    49    32    35    1
    50    34    97    1
    51    34    98    1
    52    34    99    1
    53    35    61    1
    54    36    37    1
    55    36    60    1
    56    37    38    1
    57    38    39    1
    58    39    40    1
    59    40    41    1
    60    41    42    1
    61    45   100    1
    62    47   101    1
    63    47   102    1
    64    47   103    1
    65    48   104    1
    66    49   105    1
    67    49   106    1
    68    49   107    1
    69    50   108    1
    70    51    59    1
    71    52   109    1
    72    52   110    1
    73    52   111    1
    74    53    54    1
    75    54    55    2
    76    54    56    1
    77    56   112    1
    78    56   113    1
    79    56   114    1
    80    57   115    1
    81    57   116    1
    82    57   117    1
    83    58   118    1
    84    58   119    1
    85    58   120    1
    86    59   121    1
    87    59   122    1
    88    59   123    1
    89    60    61    2
    90     1    47    1
    91     1    62    1
    92     2    63    1
    93     3    64    1
    94     4    65    1
    95     5     6    1
    96     7     8    2
    97     9    78    1
    98    15    79    1
    99    18    80    1
   100    18    81    1
   101    19    82    1
   102    19    83    1
   103    20    23    1
   104    21    84    1
   105    21    85    1
   106    22    86    1
   107    22    87    1
   108    27    45    1
   109    28    34    1
   110    32    58    1
   111    33    46    2
   112    36    51    1
   113    36    66    1
   114    37    52    1
   115    37    67    1
   116    38    53    1
   117    38    68    1
   118    42    48    1
   119    42    72    1
   120    43    44    2
   121    60    73    1
   122    61    74    1
   123    39    69    1
   124    39    57    1
   125    40    70    1
   126    40    50    1
   127    41    71    1
   128    41    49    1
