@<TRIPOS>MOLECULE
*****
 123 128 0 0 0
SMALL
GASTEIGER

@<TRIPOS>ATOM
     1 C         -0.5001   4.045276   0.739674 C.3        1 UNL1     0.0009
     2 C         -0.723917   5.397236   -0.508984 C.2        1 UNL1     -0.0787
     3 C         -0.178892   6.48453   -1.294341 C.2        1 UNL1     -0.0649
     4 C         -0.952868   7.387962   -2.498969 C.2        1 UNL1     -0.0542
     5 C         -0.761616   8.233658   -3.61937 C.2        1 UNL1     0.0115
     6 C         0.297845   9.043808   -4.415941 C.3        1 UNL1     -0.0348
     7 C         -1.97832   8.453883   -4.643148 C.2        1 UNL1     0.2441
     8 O         -2.669751   9.463055   -4.647728 O.2        1 UNL1     -0.2702
     9 N         -2.032164   7.530105   -5.701394 N.am        1 UNL1     -0.2772
     10 C         -2.757211   6.420057   -5.333397 C.2        1 UNL1     0.1049
     11 C         -2.103815   5.498688   -4.649017 C.2        1 UNL1     0.0801
     12 C         -4.918514   5.720056   -4.286449 C.ar        1 UNL1     0.0753
     13 C         -4.139445   4.88721   -3.421563 C.ar        1 UNL1     0.0305
     14 C         -2.717906   4.650932   -3.66333 C.2        1 UNL1     0.0924
     15 N         -0.785604   5.361413   -4.425401 N.pl3        1 UNL1     -0.3170
     16 C         -0.58062   4.097877   -3.768352 C.3        1 UNL1     0.1275
     17 N         -1.872773   3.84081   -3.032158 N.2        1 UNL1     -0.2557
     18 C         -0.493541   3.031517   -4.856008 C.3        1 UNL1     0.0016
     19 C         0.608067   3.418796   -5.829693 C.3        1 UNL1     0.0026
     20 N         1.862939   3.524812   -5.098198 N.3        1 UNL1     -0.3018
     21 C         1.857985   4.482863   -3.990731 C.3        1 UNL1     0.0026
     22 C         0.747106   4.072108   -3.02268 C.3        1 UNL1     0.0016
     23 C         3.019351   3.59352   -5.969195 C.3        1 UNL1     0.0012
     24 C         2.835411   4.697255   -7.022613 C.3        1 UNL1     -0.0339
     25 C         1.712633   5.670466   -6.627279 C.3        1 UNL1     -0.0615
     26 C         4.149735   5.423268   -7.251169 C.3        1 UNL1     -0.0615
     27 C         -6.295927   5.844073   -4.1207 C.ar        1 UNL1     0.1347
     28 C         -7.008274   5.156159   -3.154581 C.ar        1 UNL1     0.0342
     29 C         -6.213888   4.380299   -2.28386 C.ar        1 UNL1     0.1435
     30 C         -4.828656   4.274984   -2.415243 C.ar        1 UNL1     0.0774
     31 O         -6.769682   3.565708   -1.360528 O.3        1 UNL1     -0.4436
     32 C         -5.730443   2.63314   -1.027102 C.3        1 UNL1     0.3143
     33 C         -4.436921   3.337303   -1.383707 C.2        1 UNL1     0.2504
     34 C         -8.505339   5.043184   -3.076253 C.3        1 UNL1     -0.0327
     35 O         -5.740608   2.475267   0.397056 O.2        1 UNL1     -0.4528
     36 C         -4.527153   -1.059546   1.060915 C.3        1 UNL1     0.0854
     37 C         -3.174604   -1.746237   0.628952 C.3        1 UNL1     0.0236
     38 C         -2.324286   -2.380301   1.831727 C.3        1 UNL1     0.1131
     39 C         -2.005042   -1.508475   3.112458 C.3        1 UNL1     0.0200
     40 C         -1.51658   0.078565   2.953887 C.3        1 UNL1     0.0661
     41 C         -0.280208   0.640874   1.937618 C.3        1 UNL1     0.0091
     42 C         -0.102189   2.236983   1.050969 C.3        1 UNL1     0.0661
     43 C         -4.224443   6.377423   -5.421523 C.2        1 UNL1     0.2131
     44 O         -4.795147   6.770603   -6.422744 O.2        1 UNL1     -0.2851
     45 O         -6.973223   6.710437   -4.97634 O.3        1 UNL1     -0.5056
     46 O         -3.335347   3.176311   -0.907817 O.2        1 UNL1     -0.2836
     47 C         -0.383705   4.64368   2.16738 C.3        1 UNL1     -0.0566
     48 O         1.301709   2.448726   1.479167 O.3        1 UNL1     -0.3909
     49 C         0.079134   -0.451844   0.955612 C.3        1 UNL1     -0.0577
     50 O         -2.63342   0.941589   2.879181 O.3        1 UNL1     -0.3910
     51 O         -4.737659   -0.932452   2.449067 O.3        1 UNL1     -0.3753
     52 C         -2.496155   -0.996126   -0.56352 C.3        1 UNL1     -0.0564
     53 O         -1.24437   -3.317121   1.375137 O.3        1 UNL1     -0.4608
     54 C         -0.885323   -4.482094   2.00112 C.2        1 UNL1     0.3042
     55 O         -1.434762   -5.011252   2.966494 O.2        1 UNL1     -0.2512
     56 C         0.282841   -5.174613   1.358841 C.3        1 UNL1     0.0332
     57 C         -3.119574   -1.83903   4.210969 C.3        1 UNL1     -0.0567
     58 C         -5.913504   1.419453   -1.967836 C.3        1 UNL1     0.0210
     59 C         -5.328218   0.301282   2.855277 C.3        1 UNL1     0.0372
     60 C         -4.769096   0.282835   0.465401 C.2        1 UNL1     -0.0208
     61 C         -5.205509   1.411428   1.026263 C.2        1 UNL1     0.0882
     62 H         -1.552337   3.769125   0.600928 H        1 UNL1     0.0365
     63 H         -1.800614   5.338787   -0.681549 H        1 UNL1     0.0576
     64 H         0.887859   6.719162   -1.284422 H        1 UNL1     0.0615
     65 H         -2.010346   7.141465   -2.370667 H        1 UNL1     0.0622
     66 H         -5.31108   -1.714715   0.655627 H        1 UNL1     0.0645
     67 H         -3.495384   -2.652016   0.085607 H        1 UNL1     0.0362
     68 H         -3.033242   -3.150331   2.172251 H        1 UNL1     0.0741
     69 H         -1.177079   -1.95952   3.642971 H        1 UNL1     0.0359
     70 H         -1.100248   0.251839   3.964681 H        1 UNL1     0.0600
     71 H         0.578811   0.596559   2.63553 H        1 UNL1     0.0348
     72 H         -0.83929   2.413285   1.847785 H        1 UNL1     0.0602
     73 H         -4.659348   0.222134   -0.588885 H        1 UNL1     0.0628
     74 H         -5.289411   1.573391   2.101421 H        1 UNL1     0.1022
     75 H         1.12573   9.374234   -3.74329 H        1 UNL1     0.0279
     76 H         0.831106   8.507854   -5.197897 H        1 UNL1     0.0279
     77 H         -0.087362   10.00907   -4.77592 H        1 UNL1     0.0279
     78 H         -1.090889   7.218642   -5.931762 H        1 UNL1     0.1553
     79 H         -0.07737   5.807729   -4.978699 H        1 UNL1     0.1484
     80 H         -0.291876   2.059987   -4.388862 H        1 UNL1     0.0317
     81 H         -1.44769   2.933055   -5.384738 H        1 UNL1     0.0317
     82 H         0.375758   4.356782   -6.355172 H        1 UNL1     0.0428
     83 H         0.651781   2.646037   -6.597797 H        1 UNL1     0.0428
     84 H         2.78486   4.485346   -3.408744 H        1 UNL1     0.0428
     85 H         1.763443   5.518212   -4.346304 H        1 UNL1     0.0428
     86 H         0.859061   4.710336   -2.165873 H        1 UNL1     0.0317
     87 H         0.950259   3.071451   -2.622042 H        1 UNL1     0.0317
     88 H         3.895477   3.83919   -5.354912 H        1 UNL1     0.0429
     89 H         3.220178   2.623813   -6.4426 H        1 UNL1     0.0429
     90 H         2.576377   4.237092   -7.983531 H        1 UNL1     0.0308
     91 H         1.503516   6.38372   -7.430174 H        1 UNL1     0.0233
     92 H         0.7973   5.125899   -6.383922 H        1 UNL1     0.0233
     93 H         1.964349   6.258863   -5.736625 H        1 UNL1     0.0233
     94 H         4.156322   5.889447   -8.242365 H        1 UNL1     0.0233
     95 H         4.274365   6.213888   -6.505951 H        1 UNL1     0.0233
     96 H         5.000274   4.738992   -7.185458 H        1 UNL1     0.0233
     97 H         -8.823683   4.05051   -2.772137 H        1 UNL1     0.0280
     98 H         -8.934609   5.735178   -2.33996 H        1 UNL1     0.0280
     99 H         -8.943927   5.259183   -4.06422 H        1 UNL1     0.0280
     100 H         -7.197995   6.339545   -5.811528 H        1 UNL1     0.2922
     101 H         -0.52617   5.723341   2.126248 H        1 UNL1     0.0236
     102 H         0.543182   4.372371   2.671617 H        1 UNL1     0.0236
     103 H         -1.183239   4.281121   2.83483 H        1 UNL1     0.0236
     104 H         1.719067   1.569491   1.567075 H        1 UNL1     0.2098
     105 H         1.091353   -0.834379   1.059976 H        1 UNL1     0.0234
     106 H         -0.633187   -1.275531   0.910164 H        1 UNL1     0.0234
     107 H         0.0   0.0   -0.0 H        1 UNL1     0.0234
     108 H         -2.294354   1.840139   2.701955 H        1 UNL1     0.2098
     109 H         -1.859899   -1.660428   -1.164847 H        1 UNL1     0.0234
     110 H         -3.213738   -0.486831   -1.215776 H        1 UNL1     0.0234
     111 H         -1.837141   -0.190791   -0.212688 H        1 UNL1     0.0234
     112 H         1.186483   -5.008899   1.953246 H        1 UNL1     0.0342
     113 H         0.099633   -6.238329   1.214667 H        1 UNL1     0.0342
     114 H         0.44456   -4.72745   0.368358 H        1 UNL1     0.0342
     115 H         -2.905189   -2.777417   4.740742 H        1 UNL1     0.0234
     116 H         -3.246155   -1.058471   4.9638 H        1 UNL1     0.0234
     117 H         -4.110948   -2.059758   3.779231 H        1 UNL1     0.0234
     118 H         -6.633012   0.686176   -1.563337 H        1 UNL1     0.0309
     119 H         -6.221171   1.702554   -2.979467 H        1 UNL1     0.0309
     120 H         -4.994466   0.834451   -2.082946 H        1 UNL1     0.0309
     121 H         -4.68684   0.737632   3.620514 H        1 UNL1     0.0524
     122 H         -5.396089   1.025527   2.026482 H        1 UNL1     0.0524
     123 H         -6.323547   0.12806   3.254537 H        1 UNL1     0.0524
@<TRIPOS>BOND
     1     1     2    1
     2     1    42    1
     3     2     3    2
     4     3     4    1
     5     4     5    2
     6     5     7    1
     7     6    75    1
     8     6    76    1
     9     6    77    1
    10     7     9   am
    11     9    10    1
    12    10    11    2
    13    10    43    1
    14    11    14    1
    15    11    15    1
    16    12    13   ar
    17    12    27   ar
    18    12    43    1
    19    13    14    1
    20    13    30   ar
    21    14    17    2
    22    15    16    1
    23    16    17    1
    24    16    18    1
    25    16    22    1
    26    18    19    1
    27    19    20    1
    28    20    21    1
    29    21    22    1
    30    23    24    1
    31    23    88    1
    32    23    89    1
    33    24    25    1
    34    24    26    1
    35    24    90    1
    36    25    91    1
    37    25    92    1
    38    25    93    1
    39    26    94    1
    40    26    95    1
    41    26    96    1
    42    27    28   ar
    43    28    29   ar
    44    29    30   ar
    45    29    31    1
    46    30    33    1
    47    31    32    1
    48    32    33    1
    49    32    35    1
    50    34    97    1
    51    34    98    1
    52    34    99    1
    53    35    61    1
    54    36    37    1
    55    36    60    1
    56    37    38    1
    57    38    39    1
    58    39    40    1
    59    40    41    1
    60    41    42    1
    61    45   100    1
    62    47   101    1
    63    47   102    1
    64    47   103    1
    65    48   104    1
    66    49   105    1
    67    49   106    1
    68    49   107    1
    69    50   108    1
    70    51    59    1
    71    52   109    1
    72    52   110    1
    73    52   111    1
    74    53    54    1
    75    54    55    2
    76    54    56    1
    77    56   112    1
    78    56   113    1
    79    56   114    1
    80    57   115    1
    81    57   116    1
    82    57   117    1
    83    58   118    1
    84    58   119    1
    85    58   120    1
    86    59   121    1
    87    59   122    1
    88    59   123    1
    89    60    61    2
    90     1    47    1
    91     1    62    1
    92     2    63    1
    93     3    64    1
    94     4    65    1
    95     5     6    1
    96     7     8    2
    97     9    78    1
    98    15    79    1
    99    18    80    1
   100    18    81    1
   101    19    82    1
   102    19    83    1
   103    20    23    1
   104    21    84    1
   105    21    85    1
   106    22    86    1
   107    22    87    1
   108    27    45    1
   109    28    34    1
   110    32    58    1
   111    33    46    2
   112    36    51    1
   113    36    66    1
   114    37    52    1
   115    37    67    1
   116    38    53    1
   117    38    68    1
   118    42    48    1
   119    42    72    1
   120    43    44    2
   121    60    73    1
   122    61    74    1
   123    39    69    1
   124    39    57    1
   125    40    70    1
   126    40    50    1
   127    41    71    1
   128    41    49    1
