@<TRIPOS>MOLECULE
*****
 123 128 0 0 0
SMALL
GASTEIGER

@<TRIPOS>ATOM
     1 C         5.173938   1.725647   0.499464 C.3        1 UNL1     0.0009
     2 C         6.617366   2.520935   -0.349696 C.2        1 UNL1     -0.0787
     3 C         7.90032   2.413389   -1.011895 C.2        1 UNL1     -0.0649
     4 C         8.786751   3.641181   -1.768944 C.2        1 UNL1     -0.0542
     5 C         9.81079   3.925147   -2.705846 C.2        1 UNL1     0.0115
     6 C         10.937533   3.29064   -3.56676 C.3        1 UNL1     -0.0348
     7 C         9.916182   5.406009   -3.316527 C.2        1 UNL1     0.2441
     8 O         10.743832   6.224034   -2.939228 O.2        1 UNL1     -0.2702
     9 N         9.170096   5.613778   -4.489702 N.am        1 UNL1     -0.2772
     10 C         7.888846   6.008763   -4.180335 C.2        1 UNL1     0.1049
     11 C         7.036756   5.043106   -3.887639 C.2        1 UNL1     0.0801
     12 C         6.596196   7.627068   -2.777667 C.ar        1 UNL1     0.0753
     13 C         5.829541   6.50488   -2.328733 C.ar        1 UNL1     0.0305
     14 C         5.940571   5.196601   -2.969928 C.2        1 UNL1     0.0924
     15 N         7.152123   3.712975   -4.042457 N.pl3        1 UNL1     -0.3170
     16 C         5.878054   3.122057   -3.729698 C.3        1 UNL1     0.1275
     17 N         5.244711   4.083864   -2.754235 N.2        1 UNL1     -0.2557
     18 C         5.028725   3.182244   -4.995684 C.3        1 UNL1     0.0016
     19 C         5.782479   2.490447   -6.120344 C.3        1 UNL1     0.0026
     20 N         6.043718   1.111977   -5.7297 N.3        1 UNL1     -0.3018
     21 C         6.803035   0.95091   -4.487982 C.3        1 UNL1     0.0026
     22 C         6.025474   1.64925   -3.371015 C.3        1 UNL1     0.0016
     23 C         6.486276   0.286577   -6.83582 C.3        1 UNL1     0.0012
     24 C         5.330738   0.037182   -7.817802 C.3        1 UNL1     -0.0339
     25 C         5.355514   1.041172   -8.982039 C.3        1 UNL1     -0.0615
     26 C         5.370757   -1.397163   -8.31563 C.3        1 UNL1     -0.0615
     27 C         6.397485   8.897528   -2.242351 C.ar        1 UNL1     0.1347
     28 C         5.437595   9.17546   -1.285578 C.ar        1 UNL1     0.0342
     29 C         4.728366   8.046446   -0.823533 C.ar        1 UNL1     0.1435
     30 C         4.94169   6.76167   -1.324594 C.ar        1 UNL1     0.0774
     31 O         3.685914   8.168552   0.026991 O.3        1 UNL1     -0.4436
     32 C         2.957511   6.939481   -0.113306 C.3        1 UNL1     0.3143
     33 C         3.966402   5.938976   -0.639938 C.2        1 UNL1     0.2504
     34 C         4.997527   10.545425   -0.850107 C.3        1 UNL1     -0.0327
     35 O         2.591079   6.508811   1.203319 O.2        1 UNL1     -0.4528
     36 C         -0.662033   4.594117   0.804203 C.3        1 UNL1     0.0854
     37 C         -0.972348   3.332621   -0.090144 C.3        1 UNL1     0.0236
     38 C         -1.582117   2.077421   0.700045 C.3        1 UNL1     0.1131
     39 C         -0.862677   1.546233   2.00485 C.3        1 UNL1     0.0200
     40 C         0.797542   1.391265   2.050626 C.3        1 UNL1     0.0661
     41 C         1.755383   0.613426   0.886531 C.3        1 UNL1     0.0091
     42 C         3.46643   0.964466   0.325737 C.3        1 UNL1     0.0661
     43 C         7.54782   7.410542   -3.895606 C.2        1 UNL1     0.2131
     44 O         7.954657   8.304143   -4.615813 O.2        1 UNL1     -0.2851
     45 O         7.216838   9.926567   -2.701893 O.3        1 UNL1     -0.5056
     46 O         3.975137   4.735768   -0.505522 O.2        1 UNL1     -0.2836
     47 C         5.564234   1.298224   1.939936 C.3        1 UNL1     -0.0566
     48 O         3.906658   -0.448943   0.412871 O.3        1 UNL1     -0.3909
     49 C         0.922964   0.381908   -0.354828 C.3        1 UNL1     -0.0577
     50 O         1.40376   2.606833   2.44129 O.3        1 UNL1     -0.3910
     51 O         -0.790679   4.409345   2.195871 O.3        1 UNL1     -0.3753
     52 C         0.074035   3.162681   -1.239558 C.3        1 UNL1     -0.0564
     53 O         -2.188448   1.039217   -0.198187 O.3        1 UNL1     -0.4608
     54 C         -2.419128   -0.268459   0.140489 C.2        1 UNL1     0.3042
     55 O         -1.851571   -1.266063   -0.302799 O.2        1 UNL1     -0.2512
     56 C         -3.452199   -0.437396   1.217957 C.3        1 UNL1     0.0332
     57 C         -1.582981   2.223155   3.262273 C.3        1 UNL1     -0.0567
     58 C         1.886448   7.187485   -1.200895 C.3        1 UNL1     0.0210
     59 C         -1.137585   5.584487   2.92701 C.3        1 UNL1     0.0372
     60 C         0.671133   5.21485   0.575036 C.2        1 UNL1     -0.0208
     61 C         1.584392   5.647442   1.445419 C.2        1 UNL1     0.0882
     62 H         4.703478   2.712798   0.582587 H        1 UNL1     0.0365
     63 H         6.35693   3.57656   -0.248219 H        1 UNL1     0.0576
     64 H         8.352948   1.443262   -1.228895 H        1 UNL1     0.0615
     65 H         8.304086   4.560405   -1.426094 H        1 UNL1     0.0622
     66 H         -1.401598   5.343977   0.489878 H        1 UNL1     0.0645
     67 H         -1.834577   3.645116   -0.704528 H        1 UNL1     0.0362
     68 H         -2.527528   2.520795   1.048097 H        1 UNL1     0.0741
     69 H         -1.200503   0.537652   2.202453 H        1 UNL1     0.0359
     70 H         0.90332   0.732962   2.93409 H        1 UNL1     0.0600
     71 H         1.792021   -0.406681   1.316643 H        1 UNL1     0.0348
     72 H         3.360927   1.456224   1.303673 H        1 UNL1     0.0602
     73 H         0.792739   5.408291   -0.461806 H        1 UNL1     0.0628
     74 H         1.562974   5.44011   2.515836 H        1 UNL1     0.1022
     75 H         10.975267   2.18559   -3.410315 H        1 UNL1     0.0279
     76 H         10.82706   3.370827   -4.64585 H        1 UNL1     0.0279
     77 H         11.943532   3.590541   -3.238542 H        1 UNL1     0.0279
     78 H         9.10439   4.742621   -5.012048 H        1 UNL1     0.1553
     79 H         7.816449   3.279303   -4.656894 H        1 UNL1     0.1484
     80 H         4.064152   2.697436   -4.802481 H        1 UNL1     0.0317
     81 H         4.808767   4.219461   -5.270365 H        1 UNL1     0.0317
     82 H         6.7168   3.015635   -6.367596 H        1 UNL1     0.0428
     83 H         5.159871   2.546494   -7.013804 H        1 UNL1     0.0428
     84 H         6.916577   -0.091779   -4.175381 H        1 UNL1     0.0428
     85 H         7.835485   1.312696   -4.590328 H        1 UNL1     0.0428
     86 H         6.538189   1.398662   -2.460896 H        1 UNL1     0.0317
     87 H         5.042986   1.177636   -3.246941 H        1 UNL1     0.0317
     88 H         7.284577   0.823568   -7.364642 H        1 UNL1     0.0429
     89 H         6.915379   -0.659271   -6.480832 H        1 UNL1     0.0429
     90 H         4.377952   0.143053   -7.285633 H        1 UNL1     0.0308
     91 H         6.303727   0.996019   -9.526057 H        1 UNL1     0.0233
     92 H         4.534244   0.848083   -9.676186 H        1 UNL1     0.0233
     93 H         5.232259   2.076893   -8.643033 H        1 UNL1     0.0233
     94 H         4.67434   -1.526545   -9.151153 H        1 UNL1     0.0233
     95 H         6.375166   -1.640691   -8.673149 H        1 UNL1     0.0233
     96 H         5.096939   -2.101663   -7.525268 H        1 UNL1     0.0233
     97 H         4.202079   10.502446   -0.112105 H        1 UNL1     0.0280
     98 H         5.812381   11.112198   -0.381026 H        1 UNL1     0.0280
     99 H         4.629267   11.109467   -1.722653 H        1 UNL1     0.0280
     100 H         6.754934   10.678477   -3.028845 H        1 UNL1     0.2922
     101 H         4.698083   0.869656   2.443689 H        1 UNL1     0.0236
     102 H         6.016817   2.103132   2.518101 H        1 UNL1     0.0236
     103 H         6.316996   0.492288   1.943149 H        1 UNL1     0.0236
     104 H         4.323289   -0.5747   1.287842 H        1 UNL1     0.2098
     105 H         0.712488   1.280991   -0.928553 H        1 UNL1     0.0234
     106 H         1.292382   -0.406652   -1.010291 H        1 UNL1     0.0234
     107 H         0.0   -0.0   0.0 H        1 UNL1     0.0234
     108 H         1.208334   3.264864   1.746617 H        1 UNL1     0.2098
     109 H         1.09645   3.038278   -0.856278 H        1 UNL1     0.0234
     110 H         -0.164751   2.338738   -1.920618 H        1 UNL1     0.0234
     111 H         0.106343   4.045926   -1.891309 H        1 UNL1     0.0234
     112 H         -3.585356   -1.500022   1.442548 H        1 UNL1     0.0342
     113 H         -3.20171   0.123576   2.117073 H        1 UNL1     0.0342
     114 H         -4.408602   -0.050649   0.839956 H        1 UNL1     0.0342
     115 H         -2.648796   1.961009   3.312338 H        1 UNL1     0.0234
     116 H         -1.135328   1.962924   4.223489 H        1 UNL1     0.0234
     117 H         -1.636964   3.323592   3.198506 H        1 UNL1     0.0234
     118 H         0.987172   7.680809   -0.792312 H        1 UNL1     0.0309
     119 H         2.261295   7.770771   -2.047931 H        1 UNL1     0.0309
     120 H         1.493575   6.256493   -1.623991 H        1 UNL1     0.0309
     121 H         -0.334606   6.307964   2.788576 H        1 UNL1     0.0524
     122 H         -2.068331   6.047002   2.558462 H        1 UNL1     0.0524
     123 H         -1.253648   5.35052   3.981469 H        1 UNL1     0.0524
@<TRIPOS>BOND
     1     1     2    1
     2     1    42    1
     3     2     3    2
     4     3     4    1
     5     4     5    2
     6     5     7    1
     7     6    75    1
     8     6    76    1
     9     6    77    1
    10     7     9   am
    11     9    10    1
    12    10    11    2
    13    10    43    1
    14    11    14    1
    15    11    15    1
    16    12    13   ar
    17    12    27   ar
    18    12    43    1
    19    13    14    1
    20    13    30   ar
    21    14    17    2
    22    15    16    1
    23    16    17    1
    24    16    18    1
    25    16    22    1
    26    18    19    1
    27    19    20    1
    28    20    21    1
    29    21    22    1
    30    23    24    1
    31    23    88    1
    32    23    89    1
    33    24    25    1
    34    24    26    1
    35    24    90    1
    36    25    91    1
    37    25    92    1
    38    25    93    1
    39    26    94    1
    40    26    95    1
    41    26    96    1
    42    27    28   ar
    43    28    29   ar
    44    29    30   ar
    45    29    31    1
    46    30    33    1
    47    31    32    1
    48    32    33    1
    49    32    35    1
    50    34    97    1
    51    34    98    1
    52    34    99    1
    53    35    61    1
    54    36    37    1
    55    36    60    1
    56    37    38    1
    57    38    39    1
    58    39    40    1
    59    40    41    1
    60    41    42    1
    61    45   100    1
    62    47   101    1
    63    47   102    1
    64    47   103    1
    65    48   104    1
    66    49   105    1
    67    49   106    1
    68    49   107    1
    69    50   108    1
    70    51    59    1
    71    52   109    1
    72    52   110    1
    73    52   111    1
    74    53    54    1
    75    54    55    2
    76    54    56    1
    77    56   112    1
    78    56   113    1
    79    56   114    1
    80    57   115    1
    81    57   116    1
    82    57   117    1
    83    58   118    1
    84    58   119    1
    85    58   120    1
    86    59   121    1
    87    59   122    1
    88    59   123    1
    89    60    61    2
    90     1    47    1
    91     1    62    1
    92     2    63    1
    93     3    64    1
    94     4    65    1
    95     5     6    1
    96     7     8    2
    97     9    78    1
    98    15    79    1
    99    18    80    1
   100    18    81    1
   101    19    82    1
   102    19    83    1
   103    20    23    1
   104    21    84    1
   105    21    85    1
   106    22    86    1
   107    22    87    1
   108    27    45    1
   109    28    34    1
   110    32    58    1
   111    33    46    2
   112    36    51    1
   113    36    66    1
   114    37    52    1
   115    37    67    1
   116    38    53    1
   117    38    68    1
   118    42    48    1
   119    42    72    1
   120    43    44    2
   121    60    73    1
   122    61    74    1
   123    39    69    1
   124    39    57    1
   125    40    70    1
   126    40    50    1
   127    41    71    1
   128    41    49    1
