@<TRIPOS>MOLECULE
*****
 123 128 0 0 0
SMALL
GASTEIGER

@<TRIPOS>ATOM
     1 C         4.272689   2.30503   -2.407105 C.3        1 UNL1     0.0009
     2 C         6.100494   2.578009   -2.259971 C.2        1 UNL1     -0.0787
     3 C         7.22351   3.459646   -2.019976 C.2        1 UNL1     -0.0649
     4 C         8.860453   3.047722   -1.88923 C.2        1 UNL1     -0.0542
     5 C         10.127408   3.46267   -1.409939 C.2        1 UNL1     0.0115
     6 C         10.913918   4.661992   -0.812987 C.3        1 UNL1     -0.0348
     7 C         11.288014   2.367725   -1.233645 C.2        1 UNL1     0.2441
     8 O         12.206042   2.236766   -2.031517 O.2        1 UNL1     -0.2702
     9 N         11.32549   1.746934   0.027056 N.am        1 UNL1     -0.2772
     10 C         10.505561   0.64204   0.042813 C.2        1 UNL1     0.1049
     11 C         9.224285   0.871211   0.266499 C.2        1 UNL1     0.0801
     12 C         9.950353   -1.434437   -1.236764 C.ar        1 UNL1     0.0753
     13 C         8.580379   -1.030054   -1.145915 C.ar        1 UNL1     0.0305
     14 C         8.162762   0.06822   -0.277329 C.2        1 UNL1     0.0924
     15 N         8.607678   1.987479   0.691082 N.pl3        1 UNL1     -0.3170
     16 C         7.228097   1.661002   0.936895 C.3        1 UNL1     0.1275
     17 N         6.940242   0.509921   0.004223 N.2        1 UNL1     -0.2557
     18 C         7.142863   1.092472   2.350122 C.3        1 UNL1     0.0016
     19 C         7.730156   2.106734   3.3186 C.3        1 UNL1     0.0026
     20 N         6.978575   3.349232   3.207466 N.3        1 UNL1     -0.3018
     21 C         6.950621   3.941294   1.868418 C.3        1 UNL1     0.0026
     22 C         6.352877   2.907179   0.912802 C.3        1 UNL1     0.0016
     23 C         7.25759   4.275546   4.286695 C.3        1 UNL1     0.0012
     24 C         8.478243   5.145531   3.947739 C.3        1 UNL1     -0.0339
     25 C         8.551008   6.388371   4.850019 C.3        1 UNL1     -0.0615
     26 C         9.748287   4.317072   4.033897 C.3        1 UNL1     -0.0615
     27 C         10.324329   -2.556931   -1.971793 C.ar        1 UNL1     0.1347
     28 C         9.417107   -3.373336   -2.623316 C.ar        1 UNL1     0.0342
     29 C         8.079581   -2.928074   -2.560611 C.ar        1 UNL1     0.1435
     30 C         7.694619   -1.785419   -1.858212 C.ar        1 UNL1     0.0774
     31 O         7.065108   -3.672884   -3.051638 O.3        1 UNL1     -0.4436
     32 C         5.891392   -3.158659   -2.404462 C.3        1 UNL1     0.3143
     33 C         6.253287   -1.746282   -1.991623 C.2        1 UNL1     0.2504
     34 C         9.712622   -4.723069   -3.215761 C.3        1 UNL1     -0.0327
     35 O         4.867335   -3.052544   -3.401106 O.2        1 UNL1     -0.4528
     36 C         1.579784   -3.562949   -1.573653 C.3        1 UNL1     0.0854
     37 C         0.983392   -2.76143   -0.353242 C.3        1 UNL1     0.0236
     38 C         -0.482385   -2.156745   -0.593241 C.3        1 UNL1     0.1131
     39 C         -0.775277   -1.29906   -1.889721 C.3        1 UNL1     0.0200
     40 C         0.316994   -0.1492   -2.406638 C.3        1 UNL1     0.0661
     41 C         1.017837   1.059175   -1.444214 C.3        1 UNL1     0.0091
     42 C         2.672517   1.845586   -1.539049 C.3        1 UNL1     0.0661
     43 C         10.949541   -0.670746   -0.448945 C.2        1 UNL1     0.2131
     44 O         12.034835   -1.117525   -0.124501 O.2        1 UNL1     -0.2851
     45 O         11.683246   -2.855504   -2.046879 O.3        1 UNL1     -0.5056
     46 O         5.519468   -0.796806   -1.830818 O.2        1 UNL1     -0.2836
     47 C         3.748567   2.87686   -3.751831 C.3        1 UNL1     -0.0566
     48 O         2.148531   3.227536   -1.417524 O.3        1 UNL1     -0.3909
     49 C         0.76848   0.730029   0.01077 C.3        1 UNL1     -0.0577
     50 O         1.297159   -0.729459   -3.243477 O.3        1 UNL1     -0.3910
     51 O         0.838701   -3.502871   -2.771409 O.3        1 UNL1     -0.3753
     52 C         2.089895   -1.975496   0.423229 C.3        1 UNL1     -0.0564
     53 O         -1.163362   -1.713864   0.668684 O.3        1 UNL1     -0.4608
     54 C         -0.852464   -2.142676   1.932564 C.2        1 UNL1     0.3042
     55 O         -0.104108   -1.597878   2.743117 O.2        1 UNL1     -0.2512
     56 C         -1.579018   -3.393097   2.339109 C.3        1 UNL1     0.0332
     57 C         -1.398683   -2.281429   -2.987213 C.3        1 UNL1     -0.0567
     58 C         5.683861   -4.01266   -1.132007 C.3        1 UNL1     0.0210
     59 C         1.106686   -4.556444   -3.695548 C.3        1 UNL1     0.0372
     60 C         2.986485   -3.223591   -1.921779 C.2        1 UNL1     -0.0208
     61 C         3.553774   -3.000812   -3.108074 C.2        1 UNL1     0.0882
     62 H         4.464831   1.238338   -2.574321 H        1 UNL1     0.0365
     63 H         6.476258   1.587586   -2.525177 H        1 UNL1     0.0576
     64 H         7.08042   4.502436   -1.728047 H        1 UNL1     0.0615
     65 H         8.903694   2.02581   -2.275636 H        1 UNL1     0.0622
     66 H         1.596961   -4.608534   -1.235269 H        1 UNL1     0.0645
     67 H         0.779007   -3.538502   0.40369 H        1 UNL1     0.0362
     68 H         -1.04726   -3.091747   -0.728182 H        1 UNL1     0.0741
     69 H         -1.672707   -0.717283   -1.726743 H        1 UNL1     0.0359
     70 H         -0.327348   0.429763   -3.095612 H        1 UNL1     0.0600
     71 H         0.293533   1.881069   -1.60802 H        1 UNL1     0.0348
     72 H         2.496136   1.390463   -2.524477 H        1 UNL1     0.0602
     73 H         3.589099   -3.296184   -1.050667 H        1 UNL1     0.0628
     74 H         3.002467   -2.855383   -4.03767 H        1 UNL1     0.1022
     75 H         10.90889   5.525503   -1.521052 H        1 UNL1     0.0279
     76 H         10.510725   5.102243   0.096234 H        1 UNL1     0.0279
     77 H         11.991619   4.461447   -0.723297 H        1 UNL1     0.0279
     78 H         10.983776   2.39212   0.736311 H        1 UNL1     0.1553
     79 H         9.079013   2.741766   1.155653 H        1 UNL1     0.1484
     80 H         6.094004   0.874857   2.585292 H        1 UNL1     0.0317
     81 H         7.683988   0.143003   2.423223 H        1 UNL1     0.0317
     82 H         8.801327   2.274115   3.132885 H        1 UNL1     0.0428
     83 H         7.661009   1.680474   4.319885 H        1 UNL1     0.0428
     84 H         6.314751   4.828998   1.794509 H        1 UNL1     0.0428
     85 H         7.942749   4.297187   1.558032 H        1 UNL1     0.0428
     86 H         6.224993   3.41803   -0.023502 H        1 UNL1     0.0317
     87 H         5.325577   2.668372   1.214002 H        1 UNL1     0.0317
     88 H         6.38488   4.930309   4.408993 H        1 UNL1     0.0429
     89 H         7.399554   3.747723   5.238548 H        1 UNL1     0.0429
     90 H         8.40584   5.475152   2.904513 H        1 UNL1     0.0308
     91 H         7.78181   6.360911   5.627633 H        1 UNL1     0.0233
     92 H         9.533906   6.467191   5.320453 H        1 UNL1     0.0233
     93 H         8.404334   7.320012   4.290227 H        1 UNL1     0.0233
     94 H         10.398541   4.703865   4.825981 H        1 UNL1     0.0233
     95 H         9.501893   3.2796   4.276598 H        1 UNL1     0.0233
     96 H         10.302464   4.337042   3.091316 H        1 UNL1     0.0233
     97 H         10.331765   -4.651035   -4.104976 H        1 UNL1     0.0280
     98 H         10.261661   -5.369694   -2.518848 H        1 UNL1     0.0280
     99 H         8.768055   -5.219814   -3.491682 H        1 UNL1     0.0280
     100 H         12.003725   -3.399501   -1.349038 H        1 UNL1     0.2922
     101 H         2.708654   2.584238   -3.895395 H        1 UNL1     0.0236
     102 H         4.370923   2.606501   -4.604217 H        1 UNL1     0.0236
     103 H         3.731939   3.979542   -3.754539 H        1 UNL1     0.0236
     104 H         2.476933   3.594331   -0.573378 H        1 UNL1     0.2098
     105 H         1.624624   0.304262   0.528023 H        1 UNL1     0.0234
     106 H         0.340867   1.54465   0.595121 H        1 UNL1     0.0234
     107 H         0.0   0.0   0.0 H        1 UNL1     0.0234
     108 H         1.519165   -1.603091   -2.867648 H        1 UNL1     0.2098
     109 H         2.612194   -1.250821   -0.216897 H        1 UNL1     0.0234
     110 H         1.710723   -1.468387   1.316993 H        1 UNL1     0.0234
     111 H         2.86859   -2.647193   0.808461 H        1 UNL1     0.0234
     112 H         -1.961327   -3.286524   3.358828 H        1 UNL1     0.0342
     113 H         -2.380111   -3.645039   1.645841 H        1 UNL1     0.0342
     114 H         -0.860623   -4.22439   2.333942 H        1 UNL1     0.0342
     115 H         -0.70476   -2.455004   -3.821197 H        1 UNL1     0.0234
     116 H         -1.690875   -3.25741   -2.594613 H        1 UNL1     0.0234
     117 H         -2.266843   -1.853973   -3.517799 H        1 UNL1     0.0234
     118 H         5.314391   -3.40998   -0.283906 H        1 UNL1     0.0309
     119 H         5.01002   -4.860882   -1.289045 H        1 UNL1     0.0309
     120 H         6.620351   -4.435611   -0.752263 H        1 UNL1     0.0309
     121 H         0.149241   -4.920412   -4.067278 H        1 UNL1     0.0524
     122 H         1.691029   -4.211826   -4.564927 H        1 UNL1     0.0524
     123 H         1.647498   -5.359717   -3.20324 H        1 UNL1     0.0524
@<TRIPOS>BOND
     1     1     2    1
     2     1    42    1
     3     2     3    2
     4     3     4    1
     5     4     5    2
     6     5     7    1
     7     6    75    1
     8     6    76    1
     9     6    77    1
    10     7     9   am
    11     9    10    1
    12    10    11    2
    13    10    43    1
    14    11    14    1
    15    11    15    1
    16    12    13   ar
    17    12    27   ar
    18    12    43    1
    19    13    14    1
    20    13    30   ar
    21    14    17    2
    22    15    16    1
    23    16    17    1
    24    16    18    1
    25    16    22    1
    26    18    19    1
    27    19    20    1
    28    20    21    1
    29    21    22    1
    30    23    24    1
    31    23    88    1
    32    23    89    1
    33    24    25    1
    34    24    26    1
    35    24    90    1
    36    25    91    1
    37    25    92    1
    38    25    93    1
    39    26    94    1
    40    26    95    1
    41    26    96    1
    42    27    28   ar
    43    28    29   ar
    44    29    30   ar
    45    29    31    1
    46    30    33    1
    47    31    32    1
    48    32    33    1
    49    32    35    1
    50    34    97    1
    51    34    98    1
    52    34    99    1
    53    35    61    1
    54    36    37    1
    55    36    60    1
    56    37    38    1
    57    38    39    1
    58    39    40    1
    59    40    41    1
    60    41    42    1
    61    45   100    1
    62    47   101    1
    63    47   102    1
    64    47   103    1
    65    48   104    1
    66    49   105    1
    67    49   106    1
    68    49   107    1
    69    50   108    1
    70    51    59    1
    71    52   109    1
    72    52   110    1
    73    52   111    1
    74    53    54    1
    75    54    55    2
    76    54    56    1
    77    56   112    1
    78    56   113    1
    79    56   114    1
    80    57   115    1
    81    57   116    1
    82    57   117    1
    83    58   118    1
    84    58   119    1
    85    58   120    1
    86    59   121    1
    87    59   122    1
    88    59   123    1
    89    60    61    2
    90     1    47    1
    91     1    62    1
    92     2    63    1
    93     3    64    1
    94     4    65    1
    95     5     6    1
    96     7     8    2
    97     9    78    1
    98    15    79    1
    99    18    80    1
   100    18    81    1
   101    19    82    1
   102    19    83    1
   103    20    23    1
   104    21    84    1
   105    21    85    1
   106    22    86    1
   107    22    87    1
   108    27    45    1
   109    28    34    1
   110    32    58    1
   111    33    46    2
   112    36    51    1
   113    36    66    1
   114    37    52    1
   115    37    67    1
   116    38    53    1
   117    38    68    1
   118    42    48    1
   119    42    72    1
   120    43    44    2
   121    60    73    1
   122    61    74    1
   123    39    69    1
   124    39    57    1
   125    40    70    1
   126    40    50    1
   127    41    71    1
   128    41    49    1
