@<TRIPOS>MOLECULE
*****
 123 128 0 0 0
SMALL
GASTEIGER

@<TRIPOS>ATOM
     1 C         4.97207   2.23873   0.527606 C.3        1 UNL1     0.0009
     2 C         6.35922   3.115423   -0.335098 C.2        1 UNL1     -0.0787
     3 C         7.671418   3.093782   -0.94642 C.2        1 UNL1     -0.0649
     4 C         8.457265   4.34805   -1.768378 C.2        1 UNL1     -0.0542
     5 C         9.48301   4.667323   -2.691952 C.2        1 UNL1     0.0115
     6 C         10.701349   4.092033   -3.465265 C.3        1 UNL1     -0.0348
     7 C         9.460983   6.101818   -3.41218 C.2        1 UNL1     0.2441
     8 O         10.185653   7.027494   -3.073796 O.2        1 UNL1     -0.2702
     9 N         8.744177   6.143121   -4.620747 N.am        1 UNL1     -0.2772
     10 C         7.418245   6.423904   -4.383286 C.2        1 UNL1     0.1049
     11 C         6.658051   5.398839   -4.043331 C.2        1 UNL1     0.0801
     12 C         5.913626   7.997656   -3.151717 C.ar        1 UNL1     0.0753
     13 C         5.248168   6.837834   -2.64124 C.ar        1 UNL1     0.0305
     14 C         5.516818   5.50447   -3.175111 C.2        1 UNL1     0.0924
     15 N         6.914177   4.080248   -4.090701 N.pl3        1 UNL1     -0.3170
     16 C         5.695594   3.384242   -3.773075 C.3        1 UNL1     0.1275
     17 N         4.929911   4.344158   -2.895571 N.2        1 UNL1     -0.2557
     18 C         4.894819   3.261523   -5.065901 C.3        1 UNL1     0.0016
     19 C         5.758561   2.570933   -6.109273 C.3        1 UNL1     0.0026
     20 N         6.143232   1.260004   -5.604771 N.3        1 UNL1     -0.3018
     21 C         6.865752   1.271474   -4.331114 C.3        1 UNL1     0.0026
     22 C         5.97798   1.965496   -3.296663 C.3        1 UNL1     0.0016
     23 C         6.710507   0.405774   -6.629044 C.3        1 UNL1     0.0012
     24 C         5.626578   -0.031404   -7.626907 C.3        1 UNL1     -0.0339
     25 C         5.88475   -1.453921   -8.150212 C.3        1 UNL1     -0.0615
     26 C         4.253113   0.089173   -6.989854 C.3        1 UNL1     -0.0615
     27 C         5.565817   9.276518   -2.723164 C.ar        1 UNL1     0.1347
     28 C         4.54587   9.52269   -1.82141 C.ar        1 UNL1     0.0342
     29 C         3.937675   8.363069   -1.295539 C.ar        1 UNL1     0.1435
     30 C         4.300126   7.07407   -1.688389 C.ar        1 UNL1     0.0774
     31 O         2.855683   8.43821   -0.490149 O.3        1 UNL1     -0.4436
     32 C         2.262216   7.132777   -0.557336 C.3        1 UNL1     0.3143
     33 C         3.387558   6.206927   -0.972812 C.2        1 UNL1     0.2504
     34 C         3.951927   10.867637   -1.507641 C.3        1 UNL1     -0.0327
     35 O         1.890207   6.764804   0.776627 O.2        1 UNL1     -0.4528
     36 C         -1.132983   4.496493   0.425661 C.3        1 UNL1     0.0854
     37 C         -1.278004   3.146777   -0.377308 C.3        1 UNL1     0.0236
     38 C         -1.787349   1.896681   0.48847 C.3        1 UNL1     0.1131
     39 C         -1.06927   1.541578   1.852484 C.3        1 UNL1     0.0200
     40 C         0.595024   1.564707   1.962156 C.3        1 UNL1     0.0661
     41 C         1.671939   0.807185   0.892565 C.3        1 UNL1     0.0091
     42 C         3.359028   1.292581   0.360095 C.3        1 UNL1     0.0661
     43 C         6.925423   7.799593   -4.219097 C.2        1 UNL1     0.2131
     44 O         7.267107   8.675046   -4.993417 O.2        1 UNL1     -0.2851
     45 O         6.293556   10.348676   -3.235326 O.3        1 UNL1     -0.5056
     46 O         3.513435   5.024479   -0.74516 O.2        1 UNL1     -0.2836
     47 C         5.34709   1.962193   2.00844 C.3        1 UNL1     -0.0566
     48 O         3.937071   -0.056761   0.570474 O.3        1 UNL1     -0.3909
     49 C         0.916697   0.398751   -0.35254 C.3        1 UNL1     -0.0577
     50 O         1.058597   2.862511   2.276049 O.3        1 UNL1     -0.3910
     51 O         -1.296593   4.402788   1.822759 O.3        1 UNL1     -0.3753
     52 C         -0.175523   3.002488   -1.476701 C.3        1 UNL1     -0.0564
     53 O         -2.249194   0.737209   -0.344986 O.3        1 UNL1     -0.4608
     54 C         -2.055689   -0.585571   -0.043755 C.2        1 UNL1     0.3042
     55 O         -1.225952   -1.349802   -0.535005 O.2        1 UNL1     -0.2512
     56 C         -2.947963   -1.088924   1.054969 C.3        1 UNL1     0.0332
     57 C         -1.903451   2.230734   3.030355 C.3        1 UNL1     -0.0567
     58 C         1.214923   7.186369   -1.693924 C.3        1 UNL1     0.0210
     59 C         -2.511621   4.959305   2.32262 C.3        1 UNL1     0.0372
     60 C         0.138034   5.234429   0.190871 C.2        1 UNL1     -0.0208
     61 C         0.967707   5.823275   1.053221 C.2        1 UNL1     0.0882
     62 H         4.400686   3.174763   0.519041 H        1 UNL1     0.0365
     63 H         5.98892   4.142665   -0.324112 H        1 UNL1     0.0576
     64 H         8.228589   2.162863   -1.073141 H        1 UNL1     0.0615
     65 H         7.870486   5.234659   -1.513237 H        1 UNL1     0.0622
     66 H         -1.932138   5.139664   0.031037 H        1 UNL1     0.0645
     67 H         -2.142818   3.321163   -1.040819 H        1 UNL1     0.0362
     68 H         -2.785886   2.263401   0.771246 H        1 UNL1     0.0741
     69 H         -1.310172   0.520628   2.117128 H        1 UNL1     0.0359
     70 H         0.732552   0.988249   2.896951 H        1 UNL1     0.0600
     71 H         1.795329   -0.168872   1.401529 H        1 UNL1     0.0348
     72 H         3.165779   1.84164   1.293103 H        1 UNL1     0.0602
     73 H         0.279859   5.362255   -0.85354 H        1 UNL1     0.0628
     74 H         0.92557   5.694624   2.135307 H        1 UNL1     0.1022
     75 H         11.362343   3.510194   -2.778545 H        1 UNL1     0.0279
     76 H         10.481922   3.368967   -4.247631 H        1 UNL1     0.0279
     77 H         11.389556   4.874409   -3.817346 H        1 UNL1     0.0279
     78 H         8.787998   5.233614   -5.075669 H        1 UNL1     0.1553
     79 H         7.642758   3.674074   -4.648487 H        1 UNL1     0.1484
     80 H         3.977772   2.694238   -4.865954 H        1 UNL1     0.0317
     81 H         4.581369   4.246901   -5.427055 H        1 UNL1     0.0317
     82 H         6.643545   3.171106   -6.367163 H        1 UNL1     0.0428
     83 H         5.168976   2.495361   -7.023456 H        1 UNL1     0.0428
     84 H         7.07249   0.272359   -3.935084 H        1 UNL1     0.0428
     85 H         7.859232   1.730564   -4.428844 H        1 UNL1     0.0428
     86 H         6.477475   1.837882   -2.354216 H        1 UNL1     0.0317
     87 H         5.044491   1.404309   -3.167188 H        1 UNL1     0.0317
     88 H         7.472345   0.981609   -7.170626 H        1 UNL1     0.0429
     89 H         7.216729   -0.462825   -6.188533 H        1 UNL1     0.0429
     90 H         5.623234   0.658814   -8.478847 H        1 UNL1     0.0308
     91 H         6.136113   -2.138304   -7.334407 H        1 UNL1     0.0233
     92 H         5.009269   -1.835022   -8.681157 H        1 UNL1     0.0233
     93 H         6.716027   -1.491633   -8.864629 H        1 UNL1     0.0233
     94 H         3.537747   -0.557587   -7.509265 H        1 UNL1     0.0233
     95 H         4.297058   -0.228213   -5.944246 H        1 UNL1     0.0233
     96 H         3.882838   1.117346   -7.03139 H        1 UNL1     0.0233
     97 H         2.885435   10.899247   -1.709697 H        1 UNL1     0.0280
     98 H         4.065117   11.133083   -0.448404 H        1 UNL1     0.0280
     99 H         4.443009   11.640259   -2.121635 H        1 UNL1     0.0280
     100 H         7.227794   10.244027   -3.192076 H        1 UNL1     0.2922
     101 H         4.818341   2.659449   2.65799 H        1 UNL1     0.0236
     102 H         6.421751   1.971245   2.187339 H        1 UNL1     0.0236
     103 H         5.015375   0.964154   2.340219 H        1 UNL1     0.0236
     104 H         3.530986   -0.429037   1.377614 H        1 UNL1     0.2098
     105 H         0.685123   1.219439   -1.026822 H        1 UNL1     0.0234
     106 H         1.361862   -0.429216   -0.904107 H        1 UNL1     0.0234
     107 H         0.0   -0.0   0.0 H        1 UNL1     0.0234
     108 H         2.019976   2.876465   2.104808 H        1 UNL1     0.2098
     109 H         -0.223199   3.808735   -2.221955 H        1 UNL1     0.0234
     110 H         0.837763   2.943547   -1.06497 H        1 UNL1     0.0234
     111 H         -0.287825   2.067902   -2.042285 H        1 UNL1     0.0234
     112 H         -2.72886   -2.141282   1.259625 H        1 UNL1     0.0342
     113 H         -2.862034   -0.488851   1.959608 H        1 UNL1     0.0342
     114 H         -3.988742   -1.022683   0.709199 H        1 UNL1     0.0342
     115 H         -1.880993   1.631843   3.951232 H        1 UNL1     0.0234
     116 H         -1.564317   3.236896   3.284669 H        1 UNL1     0.0234
     117 H         -2.9882   2.276809   2.832525 H        1 UNL1     0.0234
     118 H         0.181714   7.131678   -1.308574 H        1 UNL1     0.0309
     119 H         1.314171   8.073015   -2.328126 H        1 UNL1     0.0309
     120 H         1.279716   6.323867   -2.366233 H        1 UNL1     0.0309
     121 H         -2.339373   5.250232   3.358501 H        1 UNL1     0.0524
     122 H         -2.816   5.86375   1.770017 H        1 UNL1     0.0524
     123 H         -3.311505   4.22636   2.267183 H        1 UNL1     0.0524
@<TRIPOS>BOND
     1     1     2    1
     2     1    42    1
     3     2     3    2
     4     3     4    1
     5     4     5    2
     6     5     7    1
     7     6    75    1
     8     6    76    1
     9     6    77    1
    10     7     9   am
    11     9    10    1
    12    10    11    2
    13    10    43    1
    14    11    14    1
    15    11    15    1
    16    12    13   ar
    17    12    27   ar
    18    12    43    1
    19    13    14    1
    20    13    30   ar
    21    14    17    2
    22    15    16    1
    23    16    17    1
    24    16    18    1
    25    16    22    1
    26    18    19    1
    27    19    20    1
    28    20    21    1
    29    21    22    1
    30    23    24    1
    31    23    88    1
    32    23    89    1
    33    24    25    1
    34    24    26    1
    35    24    90    1
    36    25    91    1
    37    25    92    1
    38    25    93    1
    39    26    94    1
    40    26    95    1
    41    26    96    1
    42    27    28   ar
    43    28    29   ar
    44    29    30   ar
    45    29    31    1
    46    30    33    1
    47    31    32    1
    48    32    33    1
    49    32    35    1
    50    34    97    1
    51    34    98    1
    52    34    99    1
    53    35    61    1
    54    36    37    1
    55    36    60    1
    56    37    38    1
    57    38    39    1
    58    39    40    1
    59    40    41    1
    60    41    42    1
    61    45   100    1
    62    47   101    1
    63    47   102    1
    64    47   103    1
    65    48   104    1
    66    49   105    1
    67    49   106    1
    68    49   107    1
    69    50   108    1
    70    51    59    1
    71    52   109    1
    72    52   110    1
    73    52   111    1
    74    53    54    1
    75    54    55    2
    76    54    56    1
    77    56   112    1
    78    56   113    1
    79    56   114    1
    80    57   115    1
    81    57   116    1
    82    57   117    1
    83    58   118    1
    84    58   119    1
    85    58   120    1
    86    59   121    1
    87    59   122    1
    88    59   123    1
    89    60    61    2
    90     1    47    1
    91     1    62    1
    92     2    63    1
    93     3    64    1
    94     4    65    1
    95     5     6    1
    96     7     8    2
    97     9    78    1
    98    15    79    1
    99    18    80    1
   100    18    81    1
   101    19    82    1
   102    19    83    1
   103    20    23    1
   104    21    84    1
   105    21    85    1
   106    22    86    1
   107    22    87    1
   108    27    45    1
   109    28    34    1
   110    32    58    1
   111    33    46    2
   112    36    51    1
   113    36    66    1
   114    37    52    1
   115    37    67    1
   116    38    53    1
   117    38    68    1
   118    42    48    1
   119    42    72    1
   120    43    44    2
   121    60    73    1
   122    61    74    1
   123    39    69    1
   124    39    57    1
   125    40    70    1
   126    40    50    1
   127    41    71    1
   128    41    49    1
