@<TRIPOS>MOLECULE
*****
 123 128 0 0 0
SMALL
GASTEIGER

@<TRIPOS>ATOM
     1 C         -1.157943   -4.617989   2.372821 C.3        1 UNL1     0.0009
     2 C         -2.344131   -6.041068   2.442393 C.2        1 UNL1     -0.0787
     3 C         -3.549374   -6.647098   2.967906 C.2        1 UNL1     -0.0649
     4 C         -4.265974   -8.109419   2.504808 C.2        1 UNL1     -0.0542
     5 C         -5.462024   -8.868714   2.508588 C.2        1 UNL1     0.0115
     6 C         -6.902031   -8.942119   3.086786 C.3        1 UNL1     -0.0348
     7 C         -5.604605   -10.09869   1.486914 C.2        1 UNL1     0.2441
     8 O         -5.469866   -11.265843   1.827687 O.2        1 UNL1     -0.2702
     9 N         -6.150277   -9.764443   0.235246 N.am        1 UNL1     -0.2772
     10 C         -5.157053   -9.3713   -0.632087 C.2        1 UNL1     0.1049
     11 C         -4.767634   -8.112761   -0.539049 C.2        1 UNL1     0.0801
     12 C         -2.913653   -10.040613   -1.513284 C.ar        1 UNL1     0.0753
     13 C         -2.480722   -8.713407   -1.197528 C.ar        1 UNL1     0.0305
     14 C         -3.429972   -7.66791   -0.822143 C.2        1 UNL1     0.0924
     15 N         -5.323367   -7.083244   0.122602 N.pl3        1 UNL1     -0.3170
     16 C         -4.606114   -5.88966   -0.239557 C.3        1 UNL1     0.1275
     17 N         -3.221724   -6.374036   -0.59532 N.2        1 UNL1     -0.2557
     18 C         -5.219094   -5.369699   -1.536321 C.3        1 UNL1     0.0016
     19 C         -6.710299   -5.165241   -1.321628 C.3        1 UNL1     0.0026
     20 N         -6.900414   -4.215134   -0.234346 N.3        1 UNL1     -0.3018
     21 C         -6.291566   -4.599515   1.040771 C.3        1 UNL1     0.0026
     22 C         -4.793231   -4.795151   0.802837 C.3        1 UNL1     0.0016
     23 C         -8.261217   -3.724173   -0.145935 C.3        1 UNL1     0.0012
     24 C         -8.979176   -3.881058   -1.495631 C.3        1 UNL1     -0.0339
     25 C         -8.107101   -3.379075   -2.658194 C.3        1 UNL1     -0.0615
     26 C         -9.400533   -5.326362   -1.696468 C.3        1 UNL1     -0.0615
     27 C         -2.01948   -10.998087   -1.986378 C.ar        1 UNL1     0.1347
     28 C         -0.681553   -10.735567   -2.221078 C.ar        1 UNL1     0.0342
     29 C         -0.267818   -9.436598   -1.856842 C.ar        1 UNL1     0.1435
     30 C         -1.14485   -8.478033   -1.347736 C.ar        1 UNL1     0.0774
     31 O         0.979272   -8.992642   -2.126424 O.3        1 UNL1     -0.4436
     32 C         0.876933   -7.562194   -2.061482 C.3        1 UNL1     0.3143
     33 C         -0.331434   -7.290719   -1.188347 C.2        1 UNL1     0.2504
     34 C         0.27612   -11.629284   -2.958797 C.3        1 UNL1     -0.0327
     35 O         2.023649   -7.085098   -1.346867 O.2        1 UNL1     -0.4528
     36 C         2.752429   -3.629025   -2.737022 C.3        1 UNL1     0.0854
     37 C         1.813468   -2.363543   -2.803571 C.3        1 UNL1     0.0236
     38 C         2.414311   -1.039799   -2.126493 C.3        1 UNL1     0.1131
     39 C         2.99146   -1.103226   -0.65505 C.3        1 UNL1     0.0200
     40 C         2.173015   -1.932711   0.538491 C.3        1 UNL1     0.0661
     41 C         0.525276   -1.772633   0.908547 C.3        1 UNL1     0.0091
     42 C         -0.677807   -3.005275   1.539884 C.3        1 UNL1     0.0661
     43 C         -4.36351   -10.338132   -1.405312 C.2        1 UNL1     0.2131
     44 O         -4.90813   -11.254723   -1.993519 O.2        1 UNL1     -0.2851
     45 O         -2.512986   -12.278824   -2.226385 O.3        1 UNL1     -0.5056
     46 O         -0.56061   -6.322225   -0.49889 O.2        1 UNL1     -0.2836
     47 C         -0.278586   -4.585914   3.651759 C.3        1 UNL1     -0.0566
     48 O         -1.216021   -2.109847   2.592333 O.3        1 UNL1     -0.3909
     49 C         -0.157085   -1.02585   -0.215817 C.3        1 UNL1     -0.0577
     50 O         2.538216   -3.298122   0.540397 O.3        1 UNL1     -0.3910
     51 O         3.913341   -3.493986   -1.948683 O.3        1 UNL1     -0.3753
     52 C         0.304218   -2.751458   -2.674597 C.3        1 UNL1     -0.0564
     53 O         1.679437   0.213589   -2.502399 O.3        1 UNL1     -0.4608
     54 C         0.94507   0.99184   -1.646268 C.2        1 UNL1     0.3042
     55 O         0.488037   0.66995   -0.550209 O.2        1 UNL1     -0.2512
     56 C         0.755821   2.402114   -2.127958 C.3        1 UNL1     0.0332
     57 C         4.571793   -1.323294   -0.765922 C.3        1 UNL1     -0.0567
     58 C         0.572325   -7.079752   -3.498838 C.3        1 UNL1     0.0210
     59 C         4.691378   -4.682967   -1.818885 C.3        1 UNL1     0.0372
     60 C         2.083607   -4.886256   -2.304346 C.2        1 UNL1     -0.0208
     61 C         2.476097   -5.819685   -1.436357 C.2        1 UNL1     0.0882
     62 H         -0.5833   -5.15908   1.611429 H        1 UNL1     0.0365
     63 H         -1.838058   -6.759799   1.794484 H        1 UNL1     0.0576
     64 H         -4.221111   -6.101044   3.634015 H        1 UNL1     0.0615
     65 H         -3.48979   -8.604784   1.915203 H        1 UNL1     0.0622
     66 H         3.064311   -3.796342   -3.777589 H        1 UNL1     0.0645
     67 H         1.815463   -2.084102   -3.871498 H        1 UNL1     0.0362
     68 H         3.288541   -0.881433   -2.776234 H        1 UNL1     0.0741
     69 H         3.03852   -0.098734   -0.256064 H        1 UNL1     0.0359
     70 H         2.667155   -1.51297   1.435544 H        1 UNL1     0.0600
     71 H         0.577797   -0.988666   1.689312 H        1 UNL1     0.0348
     72 H         0.318915   -3.409116   1.769607 H        1 UNL1     0.0602
     73 H         1.221645   -5.047185   -2.902989 H        1 UNL1     0.0628
     74 H         3.312852   -5.707092   -0.746139 H        1 UNL1     0.1022
     75 H         -7.437992   -7.975395   2.927961 H        1 UNL1     0.0279
     76 H         -7.574343   -9.661405   2.624515 H        1 UNL1     0.0279
     77 H         -6.916358   -9.020267   4.183776 H        1 UNL1     0.0279
     78 H         -6.792773   -8.981965   0.340152 H        1 UNL1     0.1553
     79 H         -6.277276   -7.071018   0.433797 H        1 UNL1     0.1484
     80 H         -4.722524   -4.432695   -1.815978 H        1 UNL1     0.0317
     81 H         -5.048684   -6.07241   -2.359005 H        1 UNL1     0.0317
     82 H         -7.225425   -6.11436   -1.112511 H        1 UNL1     0.0428
     83 H         -7.127755   -4.796042   -2.258898 H        1 UNL1     0.0428
     84 H         -6.380071   -3.833691   1.817619 H        1 UNL1     0.0428
     85 H         -6.780675   -5.480914   1.478064 H        1 UNL1     0.0428
     86 H         -4.362515   -4.943539   1.775696 H        1 UNL1     0.0317
     87 H         -4.341304   -3.85418   0.46604 H        1 UNL1     0.0317
     88 H         -8.792649   -4.324039   0.604422 H        1 UNL1     0.0429
     89 H         -8.287629   -2.682119   0.197866 H        1 UNL1     0.0429
     90 H         -9.907604   -3.298014   -1.478511 H        1 UNL1     0.0308
     91 H         -7.609955   -4.208808   -3.169556 H        1 UNL1     0.0233
     92 H         -8.70895   -2.821931   -3.379983 H        1 UNL1     0.0233
     93 H         -7.319031   -2.693714   -2.323436 H        1 UNL1     0.0233
     94 H         -9.285773   -5.610597   -2.748075 H        1 UNL1     0.0233
     95 H         -8.767159   -5.986858   -1.097682 H        1 UNL1     0.0233
     96 H         -10.444064   -5.481496   -1.408468 H        1 UNL1     0.0233
     97 H         0.269075   -12.643186   -2.569972 H        1 UNL1     0.0280
     98 H         0.025651   -11.714282   -4.0243 H        1 UNL1     0.0280
     99 H         1.299519   -11.230491   -2.86545 H        1 UNL1     0.0280
     100 H         -2.354231   -12.895754   -1.533697 H        1 UNL1     0.2922
     101 H         0.224876   -3.622371   3.727711 H        1 UNL1     0.0236
     102 H         0.421136   -5.418838   3.711846 H        1 UNL1     0.0236
     103 H         -0.882551   -4.659366   4.571555 H        1 UNL1     0.0236
     104 H         -1.93681   -1.584807   2.192623 H        1 UNL1     0.2098
     105 H         0.254457   -1.225171   -1.20208 H        1 UNL1     0.0234
     106 H         -1.242663   -1.121504   -0.233069 H        1 UNL1     0.0234
     107 H         0.0   0.0   0.0 H        1 UNL1     0.0234
     108 H         2.277294   -3.669413   -0.324376 H        1 UNL1     0.2098
     109 H         -0.32429   -2.22656   -3.407517 H        1 UNL1     0.0234
     110 H         0.129333   -3.830252   -2.747821 H        1 UNL1     0.0234
     111 H         -0.100047   -2.482498   -1.689621 H        1 UNL1     0.0234
     112 H         -0.068765   2.442589   -2.846126 H        1 UNL1     0.0342
     113 H         0.592368   3.097238   -1.305809 H        1 UNL1     0.0342
     114 H         1.671891   2.712496   -2.649153 H        1 UNL1     0.0342
     115 H         5.097564   -0.967733   0.130922 H        1 UNL1     0.0234
     116 H         4.865018   -2.362408   -0.928129 H        1 UNL1     0.0234
     117 H         5.047608   -0.708872   -1.549521 H        1 UNL1     0.0234
     118 H         1.461316   -7.133592   -4.151373 H        1 UNL1     0.0309
     119 H         -0.251245   -7.625759   -3.969807 H        1 UNL1     0.0309
     120 H         0.294916   -6.020645   -3.536824 H        1 UNL1     0.0309
     121 H         4.003313   -5.50995   -1.64562 H        1 UNL1     0.0524
     122 H         5.261608   -4.91185   -2.734575 H        1 UNL1     0.0524
     123 H         5.383289   -4.590373   -0.98655 H        1 UNL1     0.0524
@<TRIPOS>BOND
     1     1     2    1
     2     1    42    1
     3     2     3    2
     4     3     4    1
     5     4     5    2
     6     5     7    1
     7     6    75    1
     8     6    76    1
     9     6    77    1
    10     7     9   am
    11     9    10    1
    12    10    11    2
    13    10    43    1
    14    11    14    1
    15    11    15    1
    16    12    13   ar
    17    12    27   ar
    18    12    43    1
    19    13    14    1
    20    13    30   ar
    21    14    17    2
    22    15    16    1
    23    16    17    1
    24    16    18    1
    25    16    22    1
    26    18    19    1
    27    19    20    1
    28    20    21    1
    29    21    22    1
    30    23    24    1
    31    23    88    1
    32    23    89    1
    33    24    25    1
    34    24    26    1
    35    24    90    1
    36    25    91    1
    37    25    92    1
    38    25    93    1
    39    26    94    1
    40    26    95    1
    41    26    96    1
    42    27    28   ar
    43    28    29   ar
    44    29    30   ar
    45    29    31    1
    46    30    33    1
    47    31    32    1
    48    32    33    1
    49    32    35    1
    50    34    97    1
    51    34    98    1
    52    34    99    1
    53    35    61    1
    54    36    37    1
    55    36    60    1
    56    37    38    1
    57    38    39    1
    58    39    40    1
    59    40    41    1
    60    41    42    1
    61    45   100    1
    62    47   101    1
    63    47   102    1
    64    47   103    1
    65    48   104    1
    66    49   105    1
    67    49   106    1
    68    49   107    1
    69    50   108    1
    70    51    59    1
    71    52   109    1
    72    52   110    1
    73    52   111    1
    74    53    54    1
    75    54    55    2
    76    54    56    1
    77    56   112    1
    78    56   113    1
    79    56   114    1
    80    57   115    1
    81    57   116    1
    82    57   117    1
    83    58   118    1
    84    58   119    1
    85    58   120    1
    86    59   121    1
    87    59   122    1
    88    59   123    1
    89    60    61    2
    90     1    47    1
    91     1    62    1
    92     2    63    1
    93     3    64    1
    94     4    65    1
    95     5     6    1
    96     7     8    2
    97     9    78    1
    98    15    79    1
    99    18    80    1
   100    18    81    1
   101    19    82    1
   102    19    83    1
   103    20    23    1
   104    21    84    1
   105    21    85    1
   106    22    86    1
   107    22    87    1
   108    27    45    1
   109    28    34    1
   110    32    58    1
   111    33    46    2
   112    36    51    1
   113    36    66    1
   114    37    52    1
   115    37    67    1
   116    38    53    1
   117    38    68    1
   118    42    48    1
   119    42    72    1
   120    43    44    2
   121    60    73    1
   122    61    74    1
   123    39    69    1
   124    39    57    1
   125    40    70    1
   126    40    50    1
   127    41    71    1
   128    41    49    1
