@<TRIPOS>MOLECULE
*****
 123 128 0 0 0
SMALL
GASTEIGER

@<TRIPOS>ATOM
     1 C         5.154447   1.79127   0.471479 C.3        1 UNL1     0.0009
     2 C         6.592171   2.579899   -0.393421 C.2        1 UNL1     -0.0787
     3 C         7.878778   2.469232   -1.047975 C.2        1 UNL1     -0.0649
     4 C         8.754369   3.686369   -1.834281 C.2        1 UNL1     -0.0542
     5 C         9.77877   3.956841   -2.774773 C.2        1 UNL1     0.0115
     6 C         10.915814   3.312395   -3.614502 C.3        1 UNL1     -0.0348
     7 C         9.869993   5.422047   -3.424263 C.2        1 UNL1     0.2441
     8 O         10.68702   6.259062   -3.065934 O.2        1 UNL1     -0.2702
     9 N         9.126149   5.590173   -4.605187 N.am        1 UNL1     -0.2772
     10 C         7.839398   5.978805   -4.31098 C.2        1 UNL1     0.1049
     11 C         6.997006   5.011745   -3.995714 C.2        1 UNL1     0.0801
     12 C         6.523412   7.619166   -2.956457 C.ar        1 UNL1     0.0753
     13 C         5.767595   6.500751   -2.480541 C.ar        1 UNL1     0.0305
     14 C         5.895662   5.177231   -3.086301 C.2        1 UNL1     0.0924
     15 N         7.127786   3.679351   -4.114676 N.pl3        1 UNL1     -0.3170
     16 C         5.859191   3.082663   -3.790819 C.3        1 UNL1     0.1275
     17 N         5.211426   4.062863   -2.843544 N.2        1 UNL1     -0.2557
     18 C         5.014112   3.099641   -5.06096 C.3        1 UNL1     0.0016
     19 C         5.779844   2.386729   -6.164137 C.3        1 UNL1     0.0026
     20 N         6.05493   1.022148   -5.73603 N.3        1 UNL1     -0.3018
     21 C         6.81122   0.902675   -4.487783 C.3        1 UNL1     0.0026
     22 C         6.021639   1.621655   -3.392555 C.3        1 UNL1     0.0016
     23 C         6.510905   0.172683   -6.818221 C.3        1 UNL1     0.0012
     24 C         5.363105   -0.112114   -7.799649 C.3        1 UNL1     -0.0339
     25 C         5.390689   0.85635   -8.993539 C.3        1 UNL1     -0.0615
     26 C         5.413384   -1.560626   -8.253592 C.3        1 UNL1     -0.0615
     27 C         6.308499   8.901085   -2.455843 C.ar        1 UNL1     0.1347
     28 C         5.341903   9.193526   -1.51021 C.ar        1 UNL1     0.0342
     29 C         4.643533   8.069282   -1.020803 C.ar        1 UNL1     0.1435
     30 C         4.873087   6.774127   -1.486743 C.ar        1 UNL1     0.0774
     31 O         3.596526   8.202211   -0.177527 O.3        1 UNL1     -0.4436
     32 C         2.882412   6.961733   -0.287652 C.3        1 UNL1     0.3143
     33 C         3.904408   5.958998   -0.783898 C.2        1 UNL1     0.2504
     34 C         4.884922   10.569541   -1.112906 C.3        1 UNL1     -0.0327
     35 O         2.51575   6.5621   1.038661 O.2        1 UNL1     -0.4528
     36 C         -0.714262   4.60102   0.679109 C.3        1 UNL1     0.0854
     37 C         -1.00706   3.3128   -0.182449 C.3        1 UNL1     0.0236
     38 C         -1.60583   2.072258   0.638694 C.3        1 UNL1     0.1131
     39 C         -0.88553   1.584045   1.959711 C.3        1 UNL1     0.0200
     40 C         0.776125   1.449027   2.015476 C.3        1 UNL1     0.0661
     41 C         1.74704   0.651356   0.87589 C.3        1 UNL1     0.0091
     42 C         3.45621   1.006591   0.312019 C.3        1 UNL1     0.0661
     43 C         7.481677   7.383731   -4.064861 C.2        1 UNL1     0.2131
     44 O         7.881291   8.262401   -4.807143 O.2        1 UNL1     -0.2851
     45 O         7.118089   9.9267   -2.939697 O.3        1 UNL1     -0.5056
     46 O         3.926037   4.75996   -0.617484 O.2        1 UNL1     -0.2836
     47 C         5.543949   1.406683   1.924188 C.3        1 UNL1     -0.0566
     48 O         3.911827   -0.398964   0.43829 O.3        1 UNL1     -0.3909
     49 C         0.922028   0.377595   -0.36181 C.3        1 UNL1     -0.0577
     50 O         1.367252   2.681284   2.375802 O.3        1 UNL1     -0.3910
     51 O         -0.846184   4.451851   2.074737 O.3        1 UNL1     -0.3753
     52 C         0.045559   3.12416   -1.323219 C.3        1 UNL1     -0.0564
     53 O         -2.197096   1.003805   -0.233738 O.3        1 UNL1     -0.4608
     54 C         -2.414094   -0.297027   0.138655 C.2        1 UNL1     0.3042
     55 O         -1.833261   -1.299366   -0.275819 O.2        1 UNL1     -0.2512
     56 C         -3.449584   -0.449343   1.216279 C.3        1 UNL1     0.0332
     57 C         -1.618158   2.285992   3.196118 C.3        1 UNL1     -0.0567
     58 C         1.812836   7.168697   -1.385242 C.3        1 UNL1     0.0210
     59 C         -1.201283   5.643806   2.774032 C.3        1 UNL1     0.0372
     60 C         0.612773   5.230398   0.438231 C.2        1 UNL1     -0.0208
     61 C         1.517804   5.696202   1.300026 C.2        1 UNL1     0.0882
     62 H         4.672697   2.77493   0.52664 H        1 UNL1     0.0365
     63 H         6.319597   3.634853   -0.320992 H        1 UNL1     0.0576
     64 H         8.343021   1.498833   -1.23748 H        1 UNL1     0.0615
     65 H         8.260176   4.608891   -1.517723 H        1 UNL1     0.0622
     66 H         -1.460926   5.333901   0.342325 H        1 UNL1     0.0645
     67 H         -1.870352   3.599147   -0.807981 H        1 UNL1     0.0362
     68 H         -2.557453   2.514064   0.971474 H        1 UNL1     0.0741
     69 H         -1.212849   0.577336   2.182882 H        1 UNL1     0.0359
     70 H         0.885841   0.815658   2.916512 H        1 UNL1     0.0600
     71 H         1.793395   -0.356488   1.33312 H        1 UNL1     0.0348
     72 H         3.341477   1.522938   1.276145 H        1 UNL1     0.0602
     73 H         0.736196   5.39758   -0.602953 H        1 UNL1     0.0628
     74 H         1.494587   5.517153   2.375498 H        1 UNL1     0.1022
     75 H         10.965261   2.212386   -3.428576 H        1 UNL1     0.0279
     76 H         10.808599   3.36264   -4.695728 H        1 UNL1     0.0279
     77 H         11.917139   3.632204   -3.290818 H        1 UNL1     0.0279
     78 H         9.072164   4.704763   -5.104398 H        1 UNL1     0.1553
     79 H         7.799259   3.237007   -4.714998 H        1 UNL1     0.1484
     80 H         4.054268   2.609322   -4.858344 H        1 UNL1     0.0317
     81 H         4.783663   4.126655   -5.36392 H        1 UNL1     0.0317
     82 H         6.709196   2.915636   -6.421964 H        1 UNL1     0.0428
     83 H         5.160086   2.412015   -7.060972 H        1 UNL1     0.0428
     84 H         6.935176   -0.129998   -4.147149 H        1 UNL1     0.0428
     85 H         7.839959   1.273201   -4.596062 H        1 UNL1     0.0428
     86 H         6.533617   1.401116   -2.47428 H        1 UNL1     0.0317
     87 H         5.044   1.142486   -3.259458 H        1 UNL1     0.0317
     88 H         7.307381   0.703076   -7.35637 H        1 UNL1     0.0429
     89 H         6.946338   -0.759884   -6.436788 H        1 UNL1     0.0429
     90 H         4.406321   0.004968   -7.277087 H        1 UNL1     0.0308
     91 H         6.34443   0.802937   -9.527044 H        1 UNL1     0.0233
     92 H         4.577768   0.635256   -9.689157 H        1 UNL1     0.0233
     93 H         5.255543   1.900756   -8.687293 H        1 UNL1     0.0233
     94 H         4.723137   -1.718717   -9.089297 H        1 UNL1     0.0233
     95 H         6.421304   -1.809762   -8.597089 H        1 UNL1     0.0233
     96 H         5.137778   -2.242298   -7.444065 H        1 UNL1     0.0233
     97 H         4.087175   10.537242   -0.376845 H        1 UNL1     0.0280
     98 H         5.691601   11.157703   -0.656188 H        1 UNL1     0.0280
     99 H         4.513752   11.106026   -2.001451 H        1 UNL1     0.0280
     100 H         6.649091   10.664837   -3.287284 H        1 UNL1     0.2922
     101 H         4.680286   0.983373   2.436585 H        1 UNL1     0.0236
     102 H         5.986704   2.231285   2.481846 H        1 UNL1     0.0236
     103 H         6.304494   0.60855   1.951529 H        1 UNL1     0.0236
     104 H         4.326471   -0.496739   1.317767 H        1 UNL1     0.2098
     105 H         0.708199   1.257889   -0.962786 H        1 UNL1     0.0234
     106 H         1.299811   -0.427412   -0.992025 H        1 UNL1     0.0234
     107 H         0.0   -0.0   0.0 H        1 UNL1     0.0234
     108 H         1.169579   3.317629   1.661829 H        1 UNL1     0.2098
     109 H         1.068552   3.027677   -0.933492 H        1 UNL1     0.0234
     110 H         -0.178109   2.276056   -1.979295 H        1 UNL1     0.0234
     111 H         0.066152   3.987394   -2.001711 H        1 UNL1     0.0234
     112 H         -3.568046   -1.50671   1.471794 H        1 UNL1     0.0342
     113 H         -3.211641   0.14173   2.099375 H        1 UNL1     0.0342
     114 H         -4.409827   -0.088307   0.822895 H        1 UNL1     0.0342
     115 H         -2.681169   2.013301   3.249363 H        1 UNL1     0.0234
     116 H         -1.171327   2.056439   4.165497 H        1 UNL1     0.0234
     117 H         -1.684159   3.383669   3.102901 H        1 UNL1     0.0234
     118 H         0.906555   7.662558   -0.993118 H        1 UNL1     0.0309
     119 H         2.184408   7.733452   -2.246165 H        1 UNL1     0.0309
     120 H         1.431992   6.222434   -1.784806 H        1 UNL1     0.0309
     121 H         -0.400102   6.366491   2.621745 H        1 UNL1     0.0524
     122 H         -2.131592   6.093453   2.388831 H        1 UNL1     0.0524
     123 H         -1.322378   5.436122   3.833417 H        1 UNL1     0.0524
@<TRIPOS>BOND
     1     1     2    1
     2     1    42    1
     3     2     3    2
     4     3     4    1
     5     4     5    2
     6     5     7    1
     7     6    75    1
     8     6    76    1
     9     6    77    1
    10     7     9   am
    11     9    10    1
    12    10    11    2
    13    10    43    1
    14    11    14    1
    15    11    15    1
    16    12    13   ar
    17    12    27   ar
    18    12    43    1
    19    13    14    1
    20    13    30   ar
    21    14    17    2
    22    15    16    1
    23    16    17    1
    24    16    18    1
    25    16    22    1
    26    18    19    1
    27    19    20    1
    28    20    21    1
    29    21    22    1
    30    23    24    1
    31    23    88    1
    32    23    89    1
    33    24    25    1
    34    24    26    1
    35    24    90    1
    36    25    91    1
    37    25    92    1
    38    25    93    1
    39    26    94    1
    40    26    95    1
    41    26    96    1
    42    27    28   ar
    43    28    29   ar
    44    29    30   ar
    45    29    31    1
    46    30    33    1
    47    31    32    1
    48    32    33    1
    49    32    35    1
    50    34    97    1
    51    34    98    1
    52    34    99    1
    53    35    61    1
    54    36    37    1
    55    36    60    1
    56    37    38    1
    57    38    39    1
    58    39    40    1
    59    40    41    1
    60    41    42    1
    61    45   100    1
    62    47   101    1
    63    47   102    1
    64    47   103    1
    65    48   104    1
    66    49   105    1
    67    49   106    1
    68    49   107    1
    69    50   108    1
    70    51    59    1
    71    52   109    1
    72    52   110    1
    73    52   111    1
    74    53    54    1
    75    54    55    2
    76    54    56    1
    77    56   112    1
    78    56   113    1
    79    56   114    1
    80    57   115    1
    81    57   116    1
    82    57   117    1
    83    58   118    1
    84    58   119    1
    85    58   120    1
    86    59   121    1
    87    59   122    1
    88    59   123    1
    89    60    61    2
    90     1    47    1
    91     1    62    1
    92     2    63    1
    93     3    64    1
    94     4    65    1
    95     5     6    1
    96     7     8    2
    97     9    78    1
    98    15    79    1
    99    18    80    1
   100    18    81    1
   101    19    82    1
   102    19    83    1
   103    20    23    1
   104    21    84    1
   105    21    85    1
   106    22    86    1
   107    22    87    1
   108    27    45    1
   109    28    34    1
   110    32    58    1
   111    33    46    2
   112    36    51    1
   113    36    66    1
   114    37    52    1
   115    37    67    1
   116    38    53    1
   117    38    68    1
   118    42    48    1
   119    42    72    1
   120    43    44    2
   121    60    73    1
   122    61    74    1
   123    39    69    1
   124    39    57    1
   125    40    70    1
   126    40    50    1
   127    41    71    1
   128    41    49    1
