@<TRIPOS>MOLECULE
*****
 123 128 0 0 0
SMALL
GASTEIGER

@<TRIPOS>ATOM
     1 C         4.968761   2.244559   0.533974 C.3        1 UNL1     0.0009
     2 C         6.355752   3.123368   -0.326831 C.2        1 UNL1     -0.0787
     3 C         7.668625   3.10363   -0.936768 C.2        1 UNL1     -0.0649
     4 C         8.453807   4.359257   -1.757283 C.2        1 UNL1     -0.0542
     5 C         9.480141   4.680234   -2.679612 C.2        1 UNL1     0.0115
     6 C         10.700005   4.106811   -3.451907 C.3        1 UNL1     -0.0348
     7 C         9.457123   6.11505   -3.39917 C.2        1 UNL1     0.2441
     8 O         10.180298   7.041448   -3.059567 O.2        1 UNL1     -0.2702
     9 N         8.741551   6.156062   -4.608478 N.am        1 UNL1     -0.2772
     10 C         7.415024   6.435106   -4.37229 C.2        1 UNL1     0.1049
     11 C         6.655726   5.408946   -4.03364 C.2        1 UNL1     0.0801
     12 C         5.907172   8.006417   -3.14156 C.ar        1 UNL1     0.0753
     13 C         5.242592   6.845534   -2.632352 C.ar        1 UNL1     0.0305
     14 C         5.513443   5.512759   -3.166582 C.2        1 UNL1     0.0924
     15 N         6.913517   4.090693   -4.081374 N.pl3        1 UNL1     -0.3170
     16 C         5.695451   3.393041   -3.765381 C.3        1 UNL1     0.1275
     17 N         4.92766   4.351594   -2.888228 N.2        1 UNL1     -0.2557
     18 C         4.8962   3.269969   -5.059117 C.3        1 UNL1     0.0016
     19 C         5.761895   2.580943   -6.101904 C.3        1 UNL1     0.0026
     20 N         6.147636   1.270242   -5.597628 N.3        1 UNL1     -0.3018
     21 C         6.868787   1.281979   -4.323198 C.3        1 UNL1     0.0026
     22 C         5.979067   1.974412   -3.289356 C.3        1 UNL1     0.0016
     23 C         6.717044   0.417204   -6.62171 C.3        1 UNL1     0.0012
     24 C         5.634712   -0.020817   -7.620935 C.3        1 UNL1     -0.0339
     25 C         5.895183   -1.442762   -8.144654 C.3        1 UNL1     -0.0615
     26 C         4.260425   0.09777   -6.985285 C.3        1 UNL1     -0.0615
     27 C         5.557341   9.284644   -2.712759 C.ar        1 UNL1     0.1347
     28 C         4.536136   9.529131   -1.811971 C.ar        1 UNL1     0.0342
     29 C         3.928803   8.368511   -1.287308 C.ar        1 UNL1     0.1435
     30 C         4.29325   7.080147   -1.680395 C.ar        1 UNL1     0.0774
     31 O         2.845865   8.441937   -0.483032 O.3        1 UNL1     -0.4436
     32 C         2.254069   7.135811   -0.551481 C.3        1 UNL1     0.3143
     33 C         3.380985   6.211541   -0.966208 C.2        1 UNL1     0.2504
     34 C         3.940213   10.873196   -1.498183 C.3        1 UNL1     -0.0327
     35 O         1.881094   6.766735   0.781908 O.2        1 UNL1     -0.4528
     36 C         -1.138941   4.494896   0.426631 C.3        1 UNL1     0.0854
     37 C         -1.281456   3.145393   -0.377144 C.3        1 UNL1     0.0236
     38 C         -1.790188   1.894254   0.487487 C.3        1 UNL1     0.1131
     39 C         -1.073125   1.539369   1.852092 C.3        1 UNL1     0.0200
     40 C         0.591022   1.564483   1.963544 C.3        1 UNL1     0.0661
     41 C         1.67   0.808799   0.894732 C.3        1 UNL1     0.0091
     42 C         3.357058   1.296518   0.364291 C.3        1 UNL1     0.0661
     43 C         6.920343   7.810111   -4.20796 C.2        1 UNL1     0.2131
     44 O         7.261777   8.686357   -4.981493 O.2        1 UNL1     -0.2851
     45 O         6.28431   10.357941   -3.223629 O.3        1 UNL1     -0.5056
     46 O         3.508068   5.029138   -0.738995 O.2        1 UNL1     -0.2836
     47 C         5.342546   1.967764   2.015072 C.3        1 UNL1     -0.0566
     48 O         3.936529   -0.052217   0.574631 O.3        1 UNL1     -0.3909
     49 C         0.916582   0.400044   -0.351372 C.3        1 UNL1     -0.0577
     50 O         1.052672   2.862701   2.278557 O.3        1 UNL1     -0.3910
     51 O         -1.30392   4.400313   1.823509 O.3        1 UNL1     -0.3753
     52 C         -0.177631   3.002986   -1.475434 C.3        1 UNL1     -0.0564
     53 O         -2.249728   0.734622   -0.34702 O.3        1 UNL1     -0.4608
     54 C         -2.054922   -0.588066   -0.046223 C.2        1 UNL1     0.3042
     55 O         -1.223729   -1.351042   -0.53696 O.2        1 UNL1     -0.2512
     56 C         -2.947747   -1.093044   1.051308 C.3        1 UNL1     0.0332
     57 C         -1.9094   2.226932   3.029409 C.3        1 UNL1     -0.0567
     58 C         1.207919   7.188672   -1.689156 C.3        1 UNL1     0.0210
     59 C         -2.52016   4.955099   2.322347 C.3        1 UNL1     0.0372
     60 C         0.13142   5.234501   0.193549 C.2        1 UNL1     -0.0208
     61 C         0.959455   5.823944   1.057066 C.2        1 UNL1     0.0882
     62 H         4.396241   3.179896   0.525254 H        1 UNL1     0.0365
     63 H         5.984183   4.150151   -0.315742 H        1 UNL1     0.0576
     64 H         8.227069   2.173455   -1.063347 H        1 UNL1     0.0615
     65 H         7.865672   5.245024   -1.502338 H        1 UNL1     0.0622
     66 H         -1.938463   5.137279   0.031469 H        1 UNL1     0.0645
     67 H         -2.145777   3.319041   -1.04149 H        1 UNL1     0.0362
     68 H         -2.789474   2.259615   0.769379 H        1 UNL1     0.0741
     69 H         -1.313057   0.517997   2.115986 H        1 UNL1     0.0359
     70 H         0.728262   0.98774   2.898206 H        1 UNL1     0.0600
     71 H         1.794045   -0.167353   1.403355 H        1 UNL1     0.0348
     72 H         3.162145   1.844887   1.297359 H        1 UNL1     0.0602
     73 H         0.274198   5.363007   -0.850649 H        1 UNL1     0.0628
     74 H         0.916326   5.694717   2.139044 H        1 UNL1     0.1022
     75 H         11.360981   3.525449   -2.764767 H        1 UNL1     0.0279
     76 H         10.482295   3.383857   -4.234856 H        1 UNL1     0.0279
     77 H         11.387626   4.8902   -3.802878 H        1 UNL1     0.0279
     78 H         8.786969   5.246829   -5.063792 H        1 UNL1     0.1553
     79 H         7.643187   3.685682   -4.638582 H        1 UNL1     0.1484
     80 H         3.979637   2.701465   -4.860419 H        1 UNL1     0.0317
     81 H         4.581928   4.255137   -5.420127 H        1 UNL1     0.0317
     82 H         6.646417   3.182325   -6.358563 H        1 UNL1     0.0428
     83 H         5.173375   2.505093   -7.016749 H        1 UNL1     0.0428
     84 H         7.076328   0.282925   -3.927432 H        1 UNL1     0.0428
     85 H         7.861807   1.742332   -4.419649 H        1 UNL1     0.0428
     86 H         6.477717   1.846952   -2.34644 H        1 UNL1     0.0317
     87 H         5.046129   1.412019   -3.161144 H        1 UNL1     0.0317
     88 H         7.478751   0.994234   -7.162203 H        1 UNL1     0.0429
     89 H         7.223861   -0.450988   -6.181081 H        1 UNL1     0.0429
     90 H         5.631428   0.669809   -8.472545 H        1 UNL1     0.0308
     91 H         6.498743   -2.021998   -7.439457 H        1 UNL1     0.0233
     92 H         4.953506   -1.966436   -8.325262 H        1 UNL1     0.0233
     93 H         6.433768   -1.443803   -9.100039 H        1 UNL1     0.0233
     94 H         3.521434   -0.452244   -7.577918 H        1 UNL1     0.0233
     95 H         4.275102   -0.333366   -5.980363 H        1 UNL1     0.0233
     96 H         3.941066   1.141472   -6.916986 H        1 UNL1     0.0233
     97 H         2.873899   10.903599   -1.701357 H        1 UNL1     0.0280
     98 H         4.051952   11.138267   -0.438698 H        1 UNL1     0.0280
     99 H         4.431001   11.646717   -2.11128 H        1 UNL1     0.0280
     100 H         7.218629   10.254414   -3.179436 H        1 UNL1     0.2922
     101 H         4.812254   2.664057   2.664396 H        1 UNL1     0.0236
     102 H         6.417005   1.978044   2.195117 H        1 UNL1     0.0236
     103 H         5.011702   0.969159   2.346015 H        1 UNL1     0.0236
     104 H         3.195501   -0.687523   0.621909 H        1 UNL1     0.2098
     105 H         0.684719   1.220774   -1.025504 H        1 UNL1     0.0234
     106 H         1.363346   -0.42711   -0.902866 H        1 UNL1     0.0234
     107 H         0.0   -0.0   0.0 H        1 UNL1     0.0234
     108 H         2.014184   2.877966   2.108177 H        1 UNL1     0.2098
     109 H         -0.225503   3.809536   -2.220349 H        1 UNL1     0.0234
     110 H         0.835288   2.945086   -1.062656 H        1 UNL1     0.0234
     111 H         -0.288187   2.068539   -2.041589 H        1 UNL1     0.0234
     112 H         -2.727572   -2.145231   1.255688 H        1 UNL1     0.0342
     113 H         -2.863513   -0.493305   1.956328 H        1 UNL1     0.0342
     114 H         -3.988238   -1.027909   0.704464 H        1 UNL1     0.0342
     115 H         -1.903438   1.61813   3.944019 H        1 UNL1     0.0234
     116 H         -1.559654   3.225836   3.297584 H        1 UNL1     0.0234
     117 H         -2.991539   2.289276   2.821971 H        1 UNL1     0.0234
     118 H         0.174369   7.132529   -1.304931 H        1 UNL1     0.0309
     119 H         1.306756   8.075746   -2.322823 H        1 UNL1     0.0309
     120 H         1.274483   6.326576   -2.361812 H        1 UNL1     0.0309
     121 H         -2.349369   5.245735   3.358551 H        1 UNL1     0.0524
     122 H         -2.825059   5.859439   1.769859 H        1 UNL1     0.0524
     123 H         -3.319085   4.221203   2.265705 H        1 UNL1     0.0524
@<TRIPOS>BOND
     1     1     2    1
     2     1    42    1
     3     2     3    2
     4     3     4    1
     5     4     5    2
     6     5     7    1
     7     6    75    1
     8     6    76    1
     9     6    77    1
    10     7     9   am
    11     9    10    1
    12    10    11    2
    13    10    43    1
    14    11    14    1
    15    11    15    1
    16    12    13   ar
    17    12    27   ar
    18    12    43    1
    19    13    14    1
    20    13    30   ar
    21    14    17    2
    22    15    16    1
    23    16    17    1
    24    16    18    1
    25    16    22    1
    26    18    19    1
    27    19    20    1
    28    20    21    1
    29    21    22    1
    30    23    24    1
    31    23    88    1
    32    23    89    1
    33    24    25    1
    34    24    26    1
    35    24    90    1
    36    25    91    1
    37    25    92    1
    38    25    93    1
    39    26    94    1
    40    26    95    1
    41    26    96    1
    42    27    28   ar
    43    28    29   ar
    44    29    30   ar
    45    29    31    1
    46    30    33    1
    47    31    32    1
    48    32    33    1
    49    32    35    1
    50    34    97    1
    51    34    98    1
    52    34    99    1
    53    35    61    1
    54    36    37    1
    55    36    60    1
    56    37    38    1
    57    38    39    1
    58    39    40    1
    59    40    41    1
    60    41    42    1
    61    45   100    1
    62    47   101    1
    63    47   102    1
    64    47   103    1
    65    48   104    1
    66    49   105    1
    67    49   106    1
    68    49   107    1
    69    50   108    1
    70    51    59    1
    71    52   109    1
    72    52   110    1
    73    52   111    1
    74    53    54    1
    75    54    55    2
    76    54    56    1
    77    56   112    1
    78    56   113    1
    79    56   114    1
    80    57   115    1
    81    57   116    1
    82    57   117    1
    83    58   118    1
    84    58   119    1
    85    58   120    1
    86    59   121    1
    87    59   122    1
    88    59   123    1
    89    60    61    2
    90     1    47    1
    91     1    62    1
    92     2    63    1
    93     3    64    1
    94     4    65    1
    95     5     6    1
    96     7     8    2
    97     9    78    1
    98    15    79    1
    99    18    80    1
   100    18    81    1
   101    19    82    1
   102    19    83    1
   103    20    23    1
   104    21    84    1
   105    21    85    1
   106    22    86    1
   107    22    87    1
   108    27    45    1
   109    28    34    1
   110    32    58    1
   111    33    46    2
   112    36    51    1
   113    36    66    1
   114    37    52    1
   115    37    67    1
   116    38    53    1
   117    38    68    1
   118    42    48    1
   119    42    72    1
   120    43    44    2
   121    60    73    1
   122    61    74    1
   123    39    69    1
   124    39    57    1
   125    40    70    1
   126    40    50    1
   127    41    71    1
   128    41    49    1
