@<TRIPOS>MOLECULE
*****
 123 128 0 0 0
SMALL
GASTEIGER

@<TRIPOS>ATOM
     1 C         -3.054859   1.193372   2.503641 C.3        1 UNL1     0.0009
     2 C         -4.721822   1.851385   2.028994 C.2        1 UNL1     -0.0787
     3 C         -5.604217   2.970287   1.773094 C.2        1 UNL1     -0.0649
     4 C         -7.191837   2.930493   1.186376 C.2        1 UNL1     -0.0542
     5 C         -8.216292   3.680097   0.557358 C.2        1 UNL1     0.0115
     6 C         -8.638556   5.108983   0.1177 C.3        1 UNL1     -0.0348
     7 C         -9.435632   2.899758   -0.136378 C.2        1 UNL1     0.2441
     8 O         -10.539105   2.794983   0.381209 O.2        1 UNL1     -0.2702
     9 N         -9.231517   2.570544   -1.487713 N.am        1 UNL1     -0.2772
     10 C         -8.603761   1.350842   -1.595286 C.2        1 UNL1     0.1049
     11 C         -7.289374   1.359378   -1.466702 C.2        1 UNL1     0.0801
     12 C         -8.706762   -1.011796   -0.780017 C.ar        1 UNL1     0.0753
     13 C         -7.317186   -0.88036   -0.463139 C.ar        1 UNL1     0.0305
     14 C         -6.5337   0.265961   -0.918275 C.2        1 UNL1     0.0924
     15 N         -6.429307   2.392173   -1.454605 N.pl3        1 UNL1     -0.3170
     16 C         -5.095265   1.853175   -1.462837 C.3        1 UNL1     0.1275
     17 N         -5.229701   0.50174   -0.804601 N.2        1 UNL1     -0.2557
     18 C         -4.726669   1.580656   -2.918025 C.3        1 UNL1     0.0016
     19 C         -4.888389   2.868353   -3.71003 C.3        1 UNL1     0.0026
     20 N         -4.021218   3.885382   -3.1315 N.3        1 UNL1     -0.3018
     21 C         -4.259017   4.172944   -1.715474 C.3        1 UNL1     0.0026
     22 C         -4.086821   2.866762   -0.938215 C.3        1 UNL1     0.0016
     23 C         -3.872417   5.049697   -3.981718 C.3        1 UNL1     0.0012
     24 C         -2.616605   4.919812   -4.857974 C.3        1 UNL1     -0.0339
     25 C         -1.957224   6.2872   -5.101948 C.3        1 UNL1     -0.0615
     26 C         -1.644854   3.934241   -4.232571 C.3        1 UNL1     -0.0615
     27 C         -9.4172   -2.162733   -0.447238 C.ar        1 UNL1     0.1347
     28 C         -8.838861   -3.260116   0.1654 C.ar        1 UNL1     0.0342
     29 C         -7.481725   -3.088771   0.511791 C.ar        1 UNL1     0.1435
     30 C         -6.76642   -1.9274   0.217214 C.ar        1 UNL1     0.0774
     31 O         -6.748801   -4.106208   1.014436 O.3        1 UNL1     -0.4436
     32 C         -5.385471   -3.716325   0.79039 C.3        1 UNL1     0.3143
     33 C         -5.419855   -2.206107   0.670922 C.2        1 UNL1     0.2504
     34 C         -9.469873   -4.615309   0.3247 C.3        1 UNL1     -0.0327
     35 O         -4.652987   -4.023913   1.982912 O.2        1 UNL1     -0.4528
     36 C         -1.111197   -4.797821   0.858243 C.3        1 UNL1     0.0854
     37 C         -0.107895   -3.899636   0.037164 C.3        1 UNL1     0.0236
     38 C         1.315552   -3.663216   0.736913 C.3        1 UNL1     0.1131
     39 C         1.37998   -3.165555   2.237064 C.3        1 UNL1     0.0200
     40 C         0.367869   -1.950763   2.76843 C.3        1 UNL1     0.0661
     41 C         0.124117   -0.455568   2.005156 C.3        1 UNL1     0.0091
     42 C         -1.366901   0.610129   1.92417 C.3        1 UNL1     0.0661
     43 C         -9.344875   0.081414   -1.554589 C.2        1 UNL1     0.2131
     44 O         -10.360371   -0.062697   -2.210896 O.2        1 UNL1     -0.2851
     45 O         -10.776879   -2.191783   -0.750335 O.3        1 UNL1     -0.5056
     46 O         -4.540792   -1.410597   0.91641 O.2        1 UNL1     -0.2836
     47 C         -2.823452   1.360937   4.029536 C.3        1 UNL1     -0.0566
     48 O         -0.63615   1.854004   2.267527 O.3        1 UNL1     -0.3909
     49 C         0.694721   -0.523087   0.606105 C.3        1 UNL1     -0.0577
     50 O         -0.869745   -2.481528   3.197761 O.3        1 UNL1     -0.3910
     51 O         -0.707959   -5.133963   2.166615 O.3        1 UNL1     -0.3753
     52 C         -0.848205   -2.765928   -0.744882 C.3        1 UNL1     -0.0564
     53 O         2.358824   -3.117094   -0.193496 O.3        1 UNL1     -0.4608
     54 C         3.30506   -2.181552   0.134111 C.2        1 UNL1     0.3042
     55 O         3.168313   -1.208568   0.874679 O.2        1 UNL1     -0.2512
     56 C         4.655564   -2.457419   -0.463175 C.3        1 UNL1     0.0332
     57 C         1.547069   -4.456343   3.166646 C.3        1 UNL1     -0.0567
     58 C         -4.977982   -4.315677   -0.575721 C.3        1 UNL1     0.0210
     59 C         -1.548299   -4.626162   3.201908 C.3        1 UNL1     0.0372
     60 C         -2.495989   -4.261988   0.960196 C.2        1 UNL1     -0.0208
     61 C         -3.315206   -4.177657   2.009251 C.2        1 UNL1     0.0882
     62 H         -3.435425   0.175675   2.354734 H        1 UNL1     0.0365
     63 H         -5.292272   0.923508   1.950885 H        1 UNL1     0.0576
     64 H         -5.241344   4.000442   1.787605 H        1 UNL1     0.0615
     65 H         -7.481071   1.880989   1.288203 H        1 UNL1     0.0622
     66 H         -1.189686   -5.726877   0.276228 H        1 UNL1     0.0645
     67 H         0.173038   -4.530172   -0.824266 H        1 UNL1     0.0362
     68 H         1.684948   -4.699871   0.757286 H        1 UNL1     0.0741
     69 H         2.362869   -2.754681   2.425534 H        1 UNL1     0.0359
     70 H         0.886297   -1.666239   3.704025 H        1 UNL1     0.0600
     71 H         0.89097   0.153171   2.523162 H        1 UNL1     0.0348
     72 H         -1.521369   -0.062973   2.779968 H        1 UNL1     0.0602
     73 H         -2.854158   -4.03245   -0.012571 H        1 UNL1     0.0628
     74 H         -3.010802   -4.339099   3.043906 H        1 UNL1     0.1022
     75 H         -8.949115   5.113362   -0.954946 H        1 UNL1     0.0279
     76 H         -9.508225   5.532464   0.615102 H        1 UNL1     0.0279
     77 H         -7.795871   5.815627   0.102307 H        1 UNL1     0.0279
     78 H         -8.627289   3.26537   -1.921536 H        1 UNL1     0.1553
     79 H         -6.649342   3.304409   -1.810052 H        1 UNL1     0.1484
     80 H         -3.69542   1.210067   -2.962254 H        1 UNL1     0.0317
     81 H         -5.36072   0.794406   -3.341632 H        1 UNL1     0.0317
     82 H         -5.935248   3.205408   -3.729823 H        1 UNL1     0.0428
     83 H         -4.62225   2.651047   -4.74492 H        1 UNL1     0.0428
     84 H         -3.54363   4.88086   -1.285491 H        1 UNL1     0.0428
     85 H         -5.235859   4.649247   -1.553513 H        1 UNL1     0.0428
     86 H         -4.135748   3.138922   0.099824 H        1 UNL1     0.0317
     87 H         -3.061956   2.493707   -1.054742 H        1 UNL1     0.0317
     88 H         -4.751267   5.108627   -4.637039 H        1 UNL1     0.0429
     89 H         -3.849149   5.974492   -3.390967 H        1 UNL1     0.0429
     90 H         -2.897457   4.489769   -5.826684 H        1 UNL1     0.0308
     91 H         -1.877341   6.861456   -4.174074 H        1 UNL1     0.0233
     92 H         -0.961525   6.164247   -5.534469 H        1 UNL1     0.0233
     93 H         -2.524127   6.903851   -5.809902 H        1 UNL1     0.0233
     94 H         -0.630923   4.115337   -4.605374 H        1 UNL1     0.0233
     95 H         -1.632162   4.060252   -3.146328 H        1 UNL1     0.0233
     96 H         -1.919141   2.901408   -4.464932 H        1 UNL1     0.0233
     97 H         -8.775353   -5.342509   0.734643 H        1 UNL1     0.0280
     98 H         -10.325024   -4.595314   1.012866 H        1 UNL1     0.0280
     99 H         -9.812883   -4.98041   -0.657206 H        1 UNL1     0.0280
     100 H         -11.20306   -1.353337   -0.718717 H        1 UNL1     0.2922
     101 H         -1.963841   0.766572   4.338496 H        1 UNL1     0.0236
     102 H         -3.708973   1.139279   4.624265 H        1 UNL1     0.0236
     103 H         -2.557678   2.397351   4.296746 H        1 UNL1     0.0236
     104 H         0.033303   1.626179   2.941989 H        1 UNL1     0.2098
     105 H         1.663272   -0.04267   0.492437 H        1 UNL1     0.0234
     106 H         0.714977   -1.521878   0.170291 H        1 UNL1     0.0234
     107 H         0.0   0.0   -0.0 H        1 UNL1     0.0234
     108 H         -0.698759   -3.383688   3.530387 H        1 UNL1     0.2098
     109 H         -0.594095   -1.765703   -0.36714 H        1 UNL1     0.0234
     110 H         -0.67455   -2.804462   -1.82567 H        1 UNL1     0.0234
     111 H         -1.938588   -2.852372   -0.647215 H        1 UNL1     0.0234
     112 H         5.358313   -1.670162   -0.173835 H        1 UNL1     0.0342
     113 H         5.033458   -3.440073   -0.184911 H        1 UNL1     0.0342
     114 H         4.557681   -2.436013   -1.557307 H        1 UNL1     0.0342
     115 H         2.150603   -4.241444   4.059257 H        1 UNL1     0.0234
     116 H         0.60171   -4.885199   3.504915 H        1 UNL1     0.0234
     117 H         2.138379   -5.262037   2.69851 H        1 UNL1     0.0234
     118 H         -4.309726   -5.187343   -0.463296 H        1 UNL1     0.0309
     119 H         -5.835918   -4.599439   -1.19348 H        1 UNL1     0.0309
     120 H         -4.385947   -3.619865   -1.180244 H        1 UNL1     0.0309
     121 H         -1.784662   -5.453647   3.870307 H        1 UNL1     0.0524
     122 H         -1.048924   -3.847146   3.801739 H        1 UNL1     0.0524
     123 H         -2.4599   -4.21454   2.778064 H        1 UNL1     0.0524
@<TRIPOS>BOND
     1     1     2    1
     2     1    42    1
     3     2     3    2
     4     3     4    1
     5     4     5    2
     6     5     7    1
     7     6    75    1
     8     6    76    1
     9     6    77    1
    10     7     9   am
    11     9    10    1
    12    10    11    2
    13    10    43    1
    14    11    14    1
    15    11    15    1
    16    12    13   ar
    17    12    27   ar
    18    12    43    1
    19    13    14    1
    20    13    30   ar
    21    14    17    2
    22    15    16    1
    23    16    17    1
    24    16    18    1
    25    16    22    1
    26    18    19    1
    27    19    20    1
    28    20    21    1
    29    21    22    1
    30    23    24    1
    31    23    88    1
    32    23    89    1
    33    24    25    1
    34    24    26    1
    35    24    90    1
    36    25    91    1
    37    25    92    1
    38    25    93    1
    39    26    94    1
    40    26    95    1
    41    26    96    1
    42    27    28   ar
    43    28    29   ar
    44    29    30   ar
    45    29    31    1
    46    30    33    1
    47    31    32    1
    48    32    33    1
    49    32    35    1
    50    34    97    1
    51    34    98    1
    52    34    99    1
    53    35    61    1
    54    36    37    1
    55    36    60    1
    56    37    38    1
    57    38    39    1
    58    39    40    1
    59    40    41    1
    60    41    42    1
    61    45   100    1
    62    47   101    1
    63    47   102    1
    64    47   103    1
    65    48   104    1
    66    49   105    1
    67    49   106    1
    68    49   107    1
    69    50   108    1
    70    51    59    1
    71    52   109    1
    72    52   110    1
    73    52   111    1
    74    53    54    1
    75    54    55    2
    76    54    56    1
    77    56   112    1
    78    56   113    1
    79    56   114    1
    80    57   115    1
    81    57   116    1
    82    57   117    1
    83    58   118    1
    84    58   119    1
    85    58   120    1
    86    59   121    1
    87    59   122    1
    88    59   123    1
    89    60    61    2
    90     1    47    1
    91     1    62    1
    92     2    63    1
    93     3    64    1
    94     4    65    1
    95     5     6    1
    96     7     8    2
    97     9    78    1
    98    15    79    1
    99    18    80    1
   100    18    81    1
   101    19    82    1
   102    19    83    1
   103    20    23    1
   104    21    84    1
   105    21    85    1
   106    22    86    1
   107    22    87    1
   108    27    45    1
   109    28    34    1
   110    32    58    1
   111    33    46    2
   112    36    51    1
   113    36    66    1
   114    37    52    1
   115    37    67    1
   116    38    53    1
   117    38    68    1
   118    42    48    1
   119    42    72    1
   120    43    44    2
   121    60    73    1
   122    61    74    1
   123    39    69    1
   124    39    57    1
   125    40    70    1
   126    40    50    1
   127    41    71    1
   128    41    49    1
