@<TRIPOS>MOLECULE
*****
 123 128 0 0 0
SMALL
GASTEIGER

@<TRIPOS>ATOM
     1 C         3.003571   -2.075018   3.966366 C.3        1 UNL1     0.0009
     2 C         4.460761   -3.138004   4.394962 C.2        1 UNL1     -0.0787
     3 C         5.015901   -4.43228   4.730694 C.2        1 UNL1     -0.0649
     4 C         6.646021   -4.847306   4.922576 C.2        1 UNL1     -0.0542
     5 C         7.578331   -5.913886   4.939441 C.2        1 UNL1     0.0115
     6 C         7.717601   -7.461069   4.951648 C.3        1 UNL1     -0.0348
     7 C         9.139405   -5.58401   4.762753 C.2        1 UNL1     0.2441
     8 O         9.925356   -5.563188   5.699969 O.2        1 UNL1     -0.2702
     9 N         9.593189   -5.577914   3.432266 N.am        1 UNL1     -0.2772
     10 C         9.433603   -4.329462   2.876189 C.2        1 UNL1     0.1049
     11 C         8.233311   -4.053885   2.399139 C.2        1 UNL1     0.0801
     12 C         9.867065   -1.901592   3.294389 C.ar        1 UNL1     0.0753
     13 C         8.491342   -1.680099   2.967377 C.ar        1 UNL1     0.0305
     14 C         7.664895   -2.733286   2.381858 C.2        1 UNL1     0.0924
     15 N         7.185931   -4.865597   2.174088 N.pl3        1 UNL1     -0.3170
     16 C         6.177978   -4.102206   1.487416 C.3        1 UNL1     0.1275
     17 N         6.415302   -2.678892   1.929658 N.2        1 UNL1     -0.2557
     18 C         6.513631   -4.144965   -0.00027 C.3        1 UNL1     0.0016
     19 C         6.606022   -5.598529   -0.436397 C.3        1 UNL1     0.0026
     20 N         5.331111   -6.249368   -0.167996 N.3        1 UNL1     -0.3018
     21 C         4.892711   -6.2059   1.22853 C.3        1 UNL1     0.0026
     22 C         4.802289   -4.736581   1.644244 C.3        1 UNL1     0.0016
     23 C         5.210737   -7.541578   -0.813244 C.3        1 UNL1     0.0012
     24 C         5.076912   -7.373391   -2.334941 C.3        1 UNL1     -0.0339
     25 C         4.16711   -8.453873   -2.942294 C.3        1 UNL1     -0.0615
     26 C         4.580751   -5.975851   -2.66279 C.3        1 UNL1     -0.0615
     27 C         10.679869   -0.861318   3.738573 C.ar        1 UNL1     0.1347
     28 C         10.24168   0.445585   3.857087 C.ar        1 UNL1     0.0342
     29 C         8.871198   0.630592   3.576523 C.ar        1 UNL1     0.1435
     30 C         8.035968   -0.408893   3.165329 C.ar        1 UNL1     0.0774
     31 O         8.319378   1.863146   3.540289 O.3        1 UNL1     -0.4436
     32 C         7.109042   1.696597   2.786484 C.3        1 UNL1     0.3143
     33 C         6.759287   0.228073   2.918088 C.2        1 UNL1     0.2504
     34 C         11.112151   1.650345   4.08277 C.3        1 UNL1     -0.0327
     35 O         6.081722   2.432313   3.462196 O.2        1 UNL1     -0.4528
     36 C         3.659339   3.554756   0.763999 C.3        1 UNL1     0.0854
     37 C         2.857228   2.685317   -0.279177 C.3        1 UNL1     0.0236
     38 C         1.269625   2.911486   -0.268781 C.3        1 UNL1     0.1131
     39 C         0.474584   2.834961   1.096621 C.3        1 UNL1     0.0200
     40 C         0.80192   1.625975   2.198276 C.3        1 UNL1     0.0661
     41 C         0.8957   -0.032589   1.854793 C.3        1 UNL1     0.0091
     42 C         1.927109   -1.347945   2.610728 C.3        1 UNL1     0.0661
     43 C         10.423131   -3.257279   3.059523 C.2        1 UNL1     0.2131
     44 O         11.611414   -3.482   2.917318 O.2        1 UNL1     -0.2851
     45 O         11.995042   -1.170636   4.079277 O.3        1 UNL1     -0.5056
     46 O         5.669448   -0.295532   2.855296 O.2        1 UNL1     -0.2836
     47 C         2.146015   -1.800221   5.230908 C.3        1 UNL1     -0.0566
     48 O         0.800757   -2.299862   2.766619 O.3        1 UNL1     -0.3909
     49 C         0.974738   -0.216778   0.355686 C.3        1 UNL1     -0.0577
     50 O         1.860621   2.002449   3.055681 O.3        1 UNL1     -0.3910
     51 O         2.881138   4.28427   1.68576 O.3        1 UNL1     -0.3753
     52 C         3.493966   1.269832   -0.468695 C.3        1 UNL1     -0.0564
     53 O         0.575859   2.355475   -1.477858 O.3        1 UNL1     -0.4608
     54 C         -0.654027   1.751076   -1.481156 C.2        1 UNL1     0.3042
     55 O         -0.893792   0.545916   -1.543938 O.2        1 UNL1     -0.2512
     56 C         -1.797682   2.713921   -1.333856 C.3        1 UNL1     0.0332
     57 C         0.323541   4.327593   1.651068 C.3        1 UNL1     -0.0567
     58 C         7.467746   1.993787   1.311852 C.3        1 UNL1     0.0210
     59 C         2.856309   5.693852   1.465927 C.3        1 UNL1     0.0372
     60 C         4.6751   2.8086   1.555605 C.2        1 UNL1     -0.0208
     61 C         4.947704   2.840075   2.860764 C.2        1 UNL1     0.0882
     62 H         3.682916   -1.221024   3.857306 H        1 UNL1     0.0365
     63 H         5.252113   -2.387315   4.446895 H        1 UNL1     0.0576
     64 H         4.402038   -5.335762   4.731156 H        1 UNL1     0.0615
     65 H         7.154743   -3.881737   4.988615 H        1 UNL1     0.0622
     66 H         4.22273   4.271838   0.150459 H        1 UNL1     0.0645
     67 H         3.133979   3.116724   -1.256857 H        1 UNL1     0.0362
     68 H         1.232619   3.969785   -0.569042 H        1 UNL1     0.0741
     69 H         -0.574251   2.681198   0.880495 H        1 UNL1     0.0359
     70 H         -0.103809   1.694024   2.830798 H        1 UNL1     0.0600
     71 H         -0.15203   -0.331021   2.055183 H        1 UNL1     0.0348
     72 H         1.911194   -0.520992   3.335442 H        1 UNL1     0.0602
     73 H         5.310369   2.274391   0.893561 H        1 UNL1     0.0628
     74 H         4.315395   3.315274   3.611504 H        1 UNL1     0.1022
     75 H         7.0381   -7.909819   5.715806 H        1 UNL1     0.0279
     76 H         7.424379   -7.981745   4.04281 H        1 UNL1     0.0279
     77 H         8.700996   -7.796703   5.312182 H        1 UNL1     0.0279
     78 H         9.042392   -6.23192   2.88002 H        1 UNL1     0.1553
     79 H         7.261421   -5.862982   2.093728 H        1 UNL1     0.1484
     80 H         5.736514   -3.608178   -0.557687 H        1 UNL1     0.0317
     81 H         7.458113   -3.62884   -0.203296 H        1 UNL1     0.0317
     82 H         7.431768   -6.122851   0.066735 H        1 UNL1     0.0428
     83 H         6.847886   -5.605901   -1.499645 H        1 UNL1     0.0428
     84 H         3.896899   -6.630627   1.389083 H        1 UNL1     0.0428
     85 H         5.545518   -6.802458   1.880664 H        1 UNL1     0.0428
     86 H         4.35416   -4.738944   2.620544 H        1 UNL1     0.0317
     87 H         4.060259   -4.217126   1.025653 H        1 UNL1     0.0317
     88 H         6.123708   -8.11424   -0.60387 H        1 UNL1     0.0429
     89 H         4.369909   -8.11545   -0.402813 H        1 UNL1     0.0429
     90 H         6.069399   -7.454214   -2.793908 H        1 UNL1     0.0308
     91 H         3.250341   -8.576441   -2.357817 H        1 UNL1     0.0233
     92 H         3.904641   -8.203308   -3.972797 H        1 UNL1     0.0233
     93 H         4.65353   -9.436088   -2.980819 H        1 UNL1     0.0233
     94 H         4.120712   -5.961882   -3.656774 H        1 UNL1     0.0233
     95 H         3.823297   -5.668305   -1.936401 H        1 UNL1     0.0233
     96 H         5.397822   -5.24908   -2.64992 H        1 UNL1     0.0233
     97 H         11.004539   2.384983   3.290333 H        1 UNL1     0.0280
     98 H         10.860546   2.174043   5.01427 H        1 UNL1     0.0280
     99 H         12.168897   1.339491   4.124624 H        1 UNL1     0.0280
     100 H         12.087098   -1.910787   4.653144 H        1 UNL1     0.2922
     101 H         2.318558   -0.781666   5.577939 H        1 UNL1     0.0236
     102 H         2.301078   -2.53349   6.021638 H        1 UNL1     0.0236
     103 H         1.065253   -1.843264   5.015745 H        1 UNL1     0.0236
     104 H         0.012364   -1.784007   3.026043 H        1 UNL1     0.2098
     105 H         1.668181   0.455396   -0.143443 H        1 UNL1     0.0234
     106 H         1.144208   -1.243426   0.031341 H        1 UNL1     0.0234
     107 H         0.0   0.0   0.0 H        1 UNL1     0.0234
     108 H         1.535191   1.918408   3.972633 H        1 UNL1     0.2098
     109 H         4.525266   1.324537   -0.844381 H        1 UNL1     0.0234
     110 H         3.467275   0.660565   0.441153 H        1 UNL1     0.0234
     111 H         2.940539   0.672438   -1.205435 H        1 UNL1     0.0234
     112 H         -2.745453   2.167151   -1.323 H        1 UNL1     0.0342
     113 H         -1.696276   3.337662   -0.447004 H        1 UNL1     0.0342
     114 H         -1.801997   3.378002   -2.209152 H        1 UNL1     0.0342
     115 H         0.066504   4.342443   2.719197 H        1 UNL1     0.0234
     116 H         1.216106   4.942473   1.519545 H        1 UNL1     0.0234
     117 H         -0.532625   4.873115   1.218256 H        1 UNL1     0.0234
     118 H         7.014974   2.936106   0.956834 H        1 UNL1     0.0309
     119 H         8.546711   2.024016   1.129849 H        1 UNL1     0.0309
     120 H         7.064736   1.244307   0.621947 H        1 UNL1     0.0309
     121 H         2.650291   6.173147   2.422583 H        1 UNL1     0.0524
     122 H         3.824526   6.077933   1.103885 H        1 UNL1     0.0524
     123 H         2.084319   5.948309   0.745248 H        1 UNL1     0.0524
@<TRIPOS>BOND
     1     1     2    1
     2     1    42    1
     3     2     3    2
     4     3     4    1
     5     4     5    2
     6     5     7    1
     7     6    75    1
     8     6    76    1
     9     6    77    1
    10     7     9   am
    11     9    10    1
    12    10    11    2
    13    10    43    1
    14    11    14    1
    15    11    15    1
    16    12    13   ar
    17    12    27   ar
    18    12    43    1
    19    13    14    1
    20    13    30   ar
    21    14    17    2
    22    15    16    1
    23    16    17    1
    24    16    18    1
    25    16    22    1
    26    18    19    1
    27    19    20    1
    28    20    21    1
    29    21    22    1
    30    23    24    1
    31    23    88    1
    32    23    89    1
    33    24    25    1
    34    24    26    1
    35    24    90    1
    36    25    91    1
    37    25    92    1
    38    25    93    1
    39    26    94    1
    40    26    95    1
    41    26    96    1
    42    27    28   ar
    43    28    29   ar
    44    29    30   ar
    45    29    31    1
    46    30    33    1
    47    31    32    1
    48    32    33    1
    49    32    35    1
    50    34    97    1
    51    34    98    1
    52    34    99    1
    53    35    61    1
    54    36    37    1
    55    36    60    1
    56    37    38    1
    57    38    39    1
    58    39    40    1
    59    40    41    1
    60    41    42    1
    61    45   100    1
    62    47   101    1
    63    47   102    1
    64    47   103    1
    65    48   104    1
    66    49   105    1
    67    49   106    1
    68    49   107    1
    69    50   108    1
    70    51    59    1
    71    52   109    1
    72    52   110    1
    73    52   111    1
    74    53    54    1
    75    54    55    2
    76    54    56    1
    77    56   112    1
    78    56   113    1
    79    56   114    1
    80    57   115    1
    81    57   116    1
    82    57   117    1
    83    58   118    1
    84    58   119    1
    85    58   120    1
    86    59   121    1
    87    59   122    1
    88    59   123    1
    89    60    61    2
    90     1    47    1
    91     1    62    1
    92     2    63    1
    93     3    64    1
    94     4    65    1
    95     5     6    1
    96     7     8    2
    97     9    78    1
    98    15    79    1
    99    18    80    1
   100    18    81    1
   101    19    82    1
   102    19    83    1
   103    20    23    1
   104    21    84    1
   105    21    85    1
   106    22    86    1
   107    22    87    1
   108    27    45    1
   109    28    34    1
   110    32    58    1
   111    33    46    2
   112    36    51    1
   113    36    66    1
   114    37    52    1
   115    37    67    1
   116    38    53    1
   117    38    68    1
   118    42    48    1
   119    42    72    1
   120    43    44    2
   121    60    73    1
   122    61    74    1
   123    39    69    1
   124    39    57    1
   125    40    70    1
   126    40    50    1
   127    41    71    1
   128    41    49    1
