@<TRIPOS>MOLECULE
*****
 123 128 0 0 0
SMALL
GASTEIGER

@<TRIPOS>ATOM
     1 C         5.198539   1.593198   0.660679 C.3        1 UNL1     0.0009
     2 C         6.689074   2.345786   -0.144898 C.2        1 UNL1     -0.0787
     3 C         7.990225   2.201247   -0.763091 C.2        1 UNL1     -0.0649
     4 C         8.932121   3.400827   -1.498072 C.2        1 UNL1     -0.0542
     5 C         9.993624   3.652128   -2.402028 C.2        1 UNL1     0.0115
     6 C         11.131987   2.983256   -3.220602 C.3        1 UNL1     -0.0348
     7 C         10.156693   5.125339   -3.018507 C.2        1 UNL1     0.2441
     8 O         10.991751   5.925132   -2.619087 O.2        1 UNL1     -0.2702
     9 N         9.455554   5.343077   -4.217317 N.am        1 UNL1     -0.2772
     10 C         8.175117   5.772312   -3.953572 C.2        1 UNL1     0.1049
     11 C         7.289612   4.830492   -3.68324 C.2        1 UNL1     0.0801
     12 C         6.877841   7.432799   -2.60554 C.ar        1 UNL1     0.0753
     13 C         6.06854   6.333513   -2.175178 C.ar        1 UNL1     0.0305
     14 C         6.167727   5.01817   -2.803736 C.2        1 UNL1     0.0924
     15 N         7.376394   3.496782   -3.825415 N.pl3        1 UNL1     -0.3170
     16 C         6.078088   2.940296   -3.551597 C.3        1 UNL1     0.1275
     17 N         5.437159   3.924838   -2.604174 N.2        1 UNL1     -0.2557
     18 C         5.273152   3.012404   -4.845653 C.3        1 UNL1     0.0016
     19 C         6.046179   2.293662   -5.939923 C.3        1 UNL1     0.0026
     20 N         6.259333   0.911998   -5.531757 N.3        1 UNL1     -0.3018
     21 C         6.972592   0.741121   -4.264307 C.3        1 UNL1     0.0026
     22 C         6.176199   1.466943   -3.178565 C.3        1 UNL1     0.0016
     23 C         6.717441   0.067633   -6.617035 C.3        1 UNL1     0.0012
     24 C         5.589284   -0.159968   -7.635473 C.3        1 UNL1     -0.0339
     25 C         5.67817   0.834471   -8.804766 C.3        1 UNL1     -0.0615
     26 C         5.609564   -1.598499   -8.122298 C.3        1 UNL1     -0.0615
     27 C         6.693617   8.711753   -2.085486 C.ar        1 UNL1     0.1347
     28 C         5.709755   9.020697   -1.163196 C.ar        1 UNL1     0.0342
     29 C         4.95722   7.913247   -0.717766 C.ar        1 UNL1     0.1435
     30 C         5.154543   6.619868   -1.203003 C.ar        1 UNL1     0.0774
     31 O         3.890463   8.067704   0.096593 O.3        1 UNL1     -0.4436
     32 C         3.136285   6.856267   -0.059957 C.3        1 UNL1     0.3143
     33 C         4.136519   5.826941   -0.545994 C.2        1 UNL1     0.2504
     34 C         5.290222   10.404433   -0.751653 C.3        1 UNL1     -0.0327
     35 O         2.715469   6.444636   1.24646 O.2        1 UNL1     -0.4528
     36 C         -0.569938   4.609159   0.751264 C.3        1 UNL1     0.0854
     37 C         -0.88212   3.349272   -0.144699 C.3        1 UNL1     0.0236
     38 C         -1.549392   2.115606   0.632836 C.3        1 UNL1     0.1131
     39 C         -0.887434   1.576198   1.964422 C.3        1 UNL1     0.0200
     40 C         0.765892   1.380024   2.066723 C.3        1 UNL1     0.0661
     41 C         1.741965   0.569865   0.940431 C.3        1 UNL1     0.0091
     42 C         3.479056   0.873777   0.434908 C.3        1 UNL1     0.0661
     43 C         7.860361   7.184257   -3.689579 C.2        1 UNL1     0.2131
     44 O         8.313406   8.062048   -4.401598 O.2        1 UNL1     -0.2851
     45 O         7.553568   9.716522   -2.524076 O.3        1 UNL1     -0.5056
     46 O         4.110347   4.624916   -0.403499 O.2        1 UNL1     -0.2836
     47 C         5.52975   1.166767   2.116164 C.3        1 UNL1     -0.0566
     48 O         3.880258   -0.549536   0.545955 O.3        1 UNL1     -0.3909
     49 C         0.945729   0.350126   -0.32654 C.3        1 UNL1     -0.0577
     50 O         1.389319   2.582869   2.469495 O.3        1 UNL1     -0.3910
     51 O         -0.749455   4.437939   2.139028 O.3        1 UNL1     -0.3753
     52 C         0.197301   3.144694   -1.25733 C.3        1 UNL1     -0.0564
     53 O         -2.151555   1.086323   -0.278372 O.3        1 UNL1     -0.4608
     54 C         -2.42598   -0.212745   0.060809 C.2        1 UNL1     0.3042
     55 O         -1.869269   -1.227305   -0.357017 O.2        1 UNL1     -0.2512
     56 C         -3.49797   -0.348204   1.104457 C.3        1 UNL1     0.0332
     57 C         -1.631835   2.280212   3.192594 C.3        1 UNL1     -0.0567
     58 C         2.108622   7.123   -1.184365 C.3        1 UNL1     0.0210
     59 C         -1.090671   5.626765   2.850456 C.3        1 UNL1     0.0372
     60 C         0.785387   5.194588   0.562771 C.2        1 UNL1     -0.0208
     61 C         1.679823   5.61057   1.460373 C.2        1 UNL1     0.0882
     62 H         4.750686   2.592414   0.721564 H        1 UNL1     0.0365
     63 H         6.452183   3.408325   -0.059092 H        1 UNL1     0.0576
     64 H         8.425146   1.21851   -0.958482 H        1 UNL1     0.0615
     65 H         8.461714   4.334359   -1.177575 H        1 UNL1     0.0622
     66 H         -1.279434   5.374975   0.40748 H        1 UNL1     0.0645
     67 H         -1.715247   3.678732   -0.789613 H        1 UNL1     0.0362
     68 H         -2.494347   2.585084   0.946162 H        1 UNL1     0.0741
     69 H         -1.257045   0.577883   2.157201 H        1 UNL1     0.0359
     70 H         0.825532   0.725812   2.957515 H        1 UNL1     0.0600
     71 H         1.738463   -0.44764   1.378186 H        1 UNL1     0.0348
     72 H         3.353537   1.375224   1.405532 H        1 UNL1     0.0602
     73 H         0.946282   5.377268   -0.470664 H        1 UNL1     0.0628
     74 H         1.617559   5.411741   2.530806 H        1 UNL1     0.1022
     75 H         11.136537   1.878791   -3.055763 H        1 UNL1     0.0279
     76 H         11.059548   3.058225   -4.303284 H        1 UNL1     0.0279
     77 H         12.133768   3.26027   -2.860881 H        1 UNL1     0.0279
     78 H         9.385258   4.470011   -4.735864 H        1 UNL1     0.1553
     79 H         8.04962   3.042081   -4.414437 H        1 UNL1     0.1484
     80 H         4.290733   2.553354   -4.681661 H        1 UNL1     0.0317
     81 H         5.088755   4.052752   -5.134312 H        1 UNL1     0.0317
     82 H         7.001193   2.793437   -6.159209 H        1 UNL1     0.0428
     83 H         5.455266   2.358699   -6.854058 H        1 UNL1     0.0428
     84 H         7.049265   -0.301752   -3.941274 H        1 UNL1     0.0428
     85 H         8.016694   1.076159   -4.33442 H        1 UNL1     0.0428
     86 H         6.651843   1.210308   -2.250185 H        1 UNL1     0.0317
     87 H         5.178515   1.021021   -3.084347 H        1 UNL1     0.0317
     88 H         7.546221   0.580538   -7.122354 H        1 UNL1     0.0429
     89 H         7.110438   -0.886025   -6.241717 H        1 UNL1     0.0429
     90 H         4.622299   -0.026336   -7.136178 H        1 UNL1     0.0308
     91 H         6.642516   0.761563   -9.316453 H        1 UNL1     0.0233
     92 H         4.875834   0.656905   -9.524722 H        1 UNL1     0.0233
     93 H         5.569931   1.875428   -8.47685 H        1 UNL1     0.0233
     94 H         4.938287   -1.71655   -8.979787 H        1 UNL1     0.0233
     95 H         6.618834   -1.869746   -8.444417 H        1 UNL1     0.0233
     96 H         5.291868   -2.290068   -7.336951 H        1 UNL1     0.0233
     97 H         4.469824   10.386843   -0.040409 H        1 UNL1     0.0280
     98 H         6.103087   10.954056   -0.25929 H        1 UNL1     0.0280
     99 H         4.965584   10.971073   -1.639698 H        1 UNL1     0.0280
     100 H         7.121961   10.477337   -2.871205 H        1 UNL1     0.2922
     101 H         4.636755   0.763762   2.59345 H        1 UNL1     0.0236
     102 H         5.983052   1.964325   2.703873 H        1 UNL1     0.0236
     103 H         6.261367   0.342269   2.149825 H        1 UNL1     0.0236
     104 H         4.266815   -0.678587   1.43415 H        1 UNL1     0.2098
     105 H         0.78241   1.248898   -0.915902 H        1 UNL1     0.0234
     106 H         1.313128   -0.456208   -0.961183 H        1 UNL1     0.0234
     107 H         0.0   -0.0   0.0 H        1 UNL1     0.0234
     108 H         1.233821   3.240449   1.764387 H        1 UNL1     0.2098
     109 H         1.202923   2.997544   -0.839257 H        1 UNL1     0.0234
     110 H         -0.039447   2.321991   -1.940597 H        1 UNL1     0.0234
     111 H         0.273605   4.022021   -1.913394 H        1 UNL1     0.0234
     112 H         -3.66505   -1.405548   1.33129 H        1 UNL1     0.0342
     113 H         -3.263328   0.212849   2.007788 H        1 UNL1     0.0342
     114 H         -4.431382   0.059433   0.692462 H        1 UNL1     0.0342
     115 H         -2.705014   2.045229   3.208688 H        1 UNL1     0.0234
     116 H         -1.223141   2.015943   4.169927 H        1 UNL1     0.0234
     117 H         -1.655822   3.381155   3.119865 H        1 UNL1     0.0234
     118 H         1.20901   7.641701   -0.809327 H        1 UNL1     0.0309
     119 H         2.526078   7.690448   -2.022181 H        1 UNL1     0.0309
     120 H         1.706629   6.199049   -1.614273 H        1 UNL1     0.0309
     121 H         -0.265493   6.328855   2.734236 H        1 UNL1     0.0524
     122 H         -1.996645   6.109724   2.447964 H        1 UNL1     0.0524
     123 H         -1.24764   5.403563   3.901949 H        1 UNL1     0.0524
@<TRIPOS>BOND
     1     1     2    1
     2     1    42    1
     3     2     3    2
     4     3     4    1
     5     4     5    2
     6     5     7    1
     7     6    75    1
     8     6    76    1
     9     6    77    1
    10     7     9   am
    11     9    10    1
    12    10    11    2
    13    10    43    1
    14    11    14    1
    15    11    15    1
    16    12    13   ar
    17    12    27   ar
    18    12    43    1
    19    13    14    1
    20    13    30   ar
    21    14    17    2
    22    15    16    1
    23    16    17    1
    24    16    18    1
    25    16    22    1
    26    18    19    1
    27    19    20    1
    28    20    21    1
    29    21    22    1
    30    23    24    1
    31    23    88    1
    32    23    89    1
    33    24    25    1
    34    24    26    1
    35    24    90    1
    36    25    91    1
    37    25    92    1
    38    25    93    1
    39    26    94    1
    40    26    95    1
    41    26    96    1
    42    27    28   ar
    43    28    29   ar
    44    29    30   ar
    45    29    31    1
    46    30    33    1
    47    31    32    1
    48    32    33    1
    49    32    35    1
    50    34    97    1
    51    34    98    1
    52    34    99    1
    53    35    61    1
    54    36    37    1
    55    36    60    1
    56    37    38    1
    57    38    39    1
    58    39    40    1
    59    40    41    1
    60    41    42    1
    61    45   100    1
    62    47   101    1
    63    47   102    1
    64    47   103    1
    65    48   104    1
    66    49   105    1
    67    49   106    1
    68    49   107    1
    69    50   108    1
    70    51    59    1
    71    52   109    1
    72    52   110    1
    73    52   111    1
    74    53    54    1
    75    54    55    2
    76    54    56    1
    77    56   112    1
    78    56   113    1
    79    56   114    1
    80    57   115    1
    81    57   116    1
    82    57   117    1
    83    58   118    1
    84    58   119    1
    85    58   120    1
    86    59   121    1
    87    59   122    1
    88    59   123    1
    89    60    61    2
    90     1    47    1
    91     1    62    1
    92     2    63    1
    93     3    64    1
    94     4    65    1
    95     5     6    1
    96     7     8    2
    97     9    78    1
    98    15    79    1
    99    18    80    1
   100    18    81    1
   101    19    82    1
   102    19    83    1
   103    20    23    1
   104    21    84    1
   105    21    85    1
   106    22    86    1
   107    22    87    1
   108    27    45    1
   109    28    34    1
   110    32    58    1
   111    33    46    2
   112    36    51    1
   113    36    66    1
   114    37    52    1
   115    37    67    1
   116    38    53    1
   117    38    68    1
   118    42    48    1
   119    42    72    1
   120    43    44    2
   121    60    73    1
   122    61    74    1
   123    39    69    1
   124    39    57    1
   125    40    70    1
   126    40    50    1
   127    41    71    1
   128    41    49    1
