@<TRIPOS>MOLECULE
*****
 123 128 0 0 0
SMALL
GASTEIGER

@<TRIPOS>ATOM
     1 C         2.823349   -4.002317   -2.453958 C.3        1 UNL1     0.0009
     2 C         2.763599   -5.723332   -3.140672 C.2        1 UNL1     -0.0787
     3 C         3.049422   -7.13693   -3.01382 C.2        1 UNL1     -0.0649
     4 C         2.592182   -8.38881   -4.057891 C.2        1 UNL1     -0.0542
     5 C         2.393657   -9.786404   -4.177881 C.2        1 UNL1     0.0115
     6 C         2.615723   -11.15234   -3.472028 C.3        1 UNL1     -0.0348
     7 C         1.509024   -10.343647   -5.396032 C.2        1 UNL1     0.2441
     8 O         1.998243   -10.846826   -6.398031 O.2        1 UNL1     -0.2702
     9 N         0.134342   -10.453779   -5.123507 N.am        1 UNL1     -0.2772
     10 C         -0.508517   -9.271802   -5.411579 C.2        1 UNL1     0.1049
     11 C         -0.464058   -8.341774   -4.47494 C.2        1 UNL1     0.0801
     12 C         -0.749466   -7.526485   -7.187289 C.ar        1 UNL1     0.0753
     13 C         -0.487276   -6.560899   -6.16381 C.ar        1 UNL1     0.0305
     14 C         -0.466654   -6.930555   -4.750311 C.2        1 UNL1     0.0924
     15 N         -0.071512   -8.42572   -3.192213 N.pl3        1 UNL1     -0.3170
     16 C         -0.380819   -7.173218   -2.555171 C.3        1 UNL1     0.1275
     17 N         -0.340261   -6.160422   -3.673349 N.2        1 UNL1     -0.2557
     18 C         -1.835492   -7.244196   -2.100651 C.3        1 UNL1     0.0016
     19 C         -2.006907   -8.462233   -1.207011 C.3        1 UNL1     0.0026
     20 N         -1.107665   -8.337194   -0.068259 N.3        1 UNL1     -0.3018
     21 C         0.310238   -8.200683   -0.407796 C.3        1 UNL1     0.0026
     22 C         0.459962   -6.96857   -1.301874 C.3        1 UNL1     0.0016
     23 C         -1.401264   -9.284314   0.988816 C.3        1 UNL1     0.0012
     24 C         -2.721438   -8.920693   1.686437 C.3        1 UNL1     -0.0339
     25 C         -2.622952   -9.108119   3.209339 C.3        1 UNL1     -0.0615
     26 C         -3.129494   -7.503627   1.322852 C.3        1 UNL1     -0.0615
     27 C         -0.887185   -7.146168   -8.520147 C.ar        1 UNL1     0.1347
     28 C         -0.822991   -5.830675   -8.943714 C.ar        1 UNL1     0.0342
     29 C         -0.515508   -4.902936   -7.925913 C.ar        1 UNL1     0.1435
     30 C         -0.339069   -5.273658   -6.59225 C.ar        1 UNL1     0.0774
     31 O         -0.526597   -3.572221   -8.158462 O.3        1 UNL1     -0.4436
     32 C         -0.645566   -2.977651   -6.857229 C.3        1 UNL1     0.3143
     33 C         -0.121519   -4.023748   -5.894281 C.2        1 UNL1     0.2504
     34 C         -1.207873   -5.323074   -10.305443 C.3        1 UNL1     -0.0327
     35 O         0.265319   -1.872568   -6.808942 O.2        1 UNL1     -0.4528
     36 C         -1.281699   0.647983   -4.429521 C.3        1 UNL1     0.0854
     37 C         -1.709186   0.463477   -2.922625 C.3        1 UNL1     0.0236
     38 C         -1.057905   1.514856   -1.901753 C.3        1 UNL1     0.1131
     39 C         0.506581   1.748573   -1.907188 C.3        1 UNL1     0.0200
     40 C         1.55386   0.454161   -2.007903 C.3        1 UNL1     0.0661
     41 C         1.499841   -0.944588   -1.049679 C.3        1 UNL1     0.0091
     42 C         1.95714   -2.676547   -1.445407 C.3        1 UNL1     0.0661
     43 C         -0.958814   -8.935248   -6.770372 C.2        1 UNL1     0.2131
     44 O         -1.555665   -9.755054   -7.444482 O.2        1 UNL1     -0.2851
     45 O         -1.095861   -8.153323   -9.460111 O.3        1 UNL1     -0.5056
     46 O         0.382542   -3.860635   -4.805625 O.2        1 UNL1     -0.2836
     47 C         4.263771   -3.431911   -2.552969 C.3        1 UNL1     -0.0566
     48 O         2.745659   -2.872038   -0.204787 O.3        1 UNL1     -0.3909
     49 C         0.170013   -0.992606   -0.330829 C.3        1 UNL1     -0.0577
     50 O         1.792947   0.106739   -3.356925 O.3        1 UNL1     -0.3910
     51 O         -0.258704   1.587962   -4.669004 O.3        1 UNL1     -0.3753
     52 C         -1.90252   -1.043495   -2.553022 C.3        1 UNL1     -0.0564
     53 O         -1.733806   1.548929   -0.56223 O.3        1 UNL1     -0.4608
     54 C         -1.102748   1.715056   0.6428 C.2        1 UNL1     0.3042
     55 O         -0.844287   0.847755   1.476362 O.2        1 UNL1     -0.2512
     56 C         -0.649857   3.124991   0.895165 C.3        1 UNL1     0.0332
     57 C         0.801164   3.01936   -2.832659 C.3        1 UNL1     -0.0567
     58 C         -2.158127   -2.77926   -6.603599 C.3        1 UNL1     0.0210
     59 C         -0.288139   2.189385   -5.962561 C.3        1 UNL1     0.0372
     60 C         -0.885796   -0.604801   -5.128774 C.2        1 UNL1     -0.0208
     61 C         0.147966   -0.856169   -5.933072 C.2        1 UNL1     0.0882
     62 H         2.285413   -3.649775   -3.342244 H        1 UNL1     0.0365
     63 H         2.338301   -5.533748   -4.128422 H        1 UNL1     0.0576
     64 H         3.471696   -7.555582   -2.097565 H        1 UNL1     0.0615
     65 H         2.263094   -7.8678   -4.96107 H        1 UNL1     0.0622
     66 H         -2.192811   0.999522   -4.933842 H        1 UNL1     0.0645
     67 H         -2.769788   0.769074   -2.905494 H        1 UNL1     0.0362
     68 H         -1.493439   2.44638   -2.294304 H        1 UNL1     0.0741
     69 H         0.792393   2.212663   -0.972661 H        1 UNL1     0.0359
     70 H         2.491238   0.941127   -1.67738 H        1 UNL1     0.0600
     71 H         2.179543   -0.642864   -0.22875 H        1 UNL1     0.0348
     72 H         2.461172   -2.050724   -2.196149 H        1 UNL1     0.0602
     73 H         -1.651532   -1.330007   -5.006411 H        1 UNL1     0.0628
     74 H         1.00135   -0.190517   -6.066792 H        1 UNL1     0.1022
     75 H         3.663125   -11.232061   -3.093046 H        1 UNL1     0.0279
     76 H         2.027645   -11.33654   -2.575755 H        1 UNL1     0.0279
     77 H         2.571688   -12.002825   -4.168043 H        1 UNL1     0.0279
     78 H         -0.00385   -10.644189   -4.133192 H        1 UNL1     0.1553
     79 H         -0.00039   -9.289751   -2.686916 H        1 UNL1     0.1484
     80 H         -2.089702   -6.318896   -1.569649 H        1 UNL1     0.0317
     81 H         -2.511333   -7.308113   -2.960189 H        1 UNL1     0.0317
     82 H         -1.823856   -9.398237   -1.755008 H        1 UNL1     0.0428
     83 H         -3.051471   -8.494717   -0.895754 H        1 UNL1     0.0428
     84 H         0.954478   -8.028483   0.460025 H        1 UNL1     0.0428
     85 H         0.712212   -9.117505   -0.860755 H        1 UNL1     0.0428
     86 H         1.517766   -6.823335   -1.419968 H        1 UNL1     0.0317
     87 H         0.139525   -6.070747   -0.759351 H        1 UNL1     0.0317
     88 H         -1.507457   -10.27897   0.536403 H        1 UNL1     0.0429
     89 H         -0.57606   -9.345451   1.709977 H        1 UNL1     0.0429
     90 H         -3.519377   -9.569183   1.305689 H        1 UNL1     0.0308
     91 H         -1.698756   -8.675753   3.604336 H        1 UNL1     0.0233
     92 H         -3.477321   -8.647941   3.711234 H        1 UNL1     0.0233
     93 H         -2.629797   -10.165254   3.50132 H        1 UNL1     0.0233
     94 H         -3.814092   -7.102227   2.077862 H        1 UNL1     0.0233
     95 H         -2.247661   -6.857679   1.28994 H        1 UNL1     0.0233
     96 H         -3.628769   -7.46919   0.35048 H        1 UNL1     0.0233
     97 H         -1.992439   -4.574028   -10.254308 H        1 UNL1     0.0280
     98 H         -0.366306   -4.8421   -10.82089 H        1 UNL1     0.0280
     99 H         -1.570084   -6.161279   -10.922947 H        1 UNL1     0.0280
     100 H         -0.497294   -8.876854   -9.398117 H        1 UNL1     0.2922
     101 H         4.318701   -2.711631   -3.368957 H        1 UNL1     0.0236
     102 H         5.026211   -4.205471   -2.638249 H        1 UNL1     0.0236
     103 H         4.544748   -2.858303   -1.65396 H        1 UNL1     0.0236
     104 H         3.223652   -2.038923   -0.024749 H        1 UNL1     0.2098
     105 H         -0.669283   -1.282655   -0.957938 H        1 UNL1     0.0234
     106 H         0.171439   -1.574028   0.591057 H        1 UNL1     0.0234
     107 H         0.0   0.0   0.0 H        1 UNL1     0.0234
     108 H         2.213414   -0.77472   -3.359342 H        1 UNL1     0.2098
     109 H         -2.605879   -1.550486   -3.228268 H        1 UNL1     0.0234
     110 H         -0.961069   -1.602222   -2.517826 H        1 UNL1     0.0234
     111 H         -2.320537   -1.162463   -1.544531 H        1 UNL1     0.0234
     112 H         -0.137492   3.184198   1.860215 H        1 UNL1     0.0342
     113 H         -0.016951   3.501619   0.093027 H        1 UNL1     0.0342
     114 H         -1.539827   3.767247   0.946409 H        1 UNL1     0.0342
     115 H         1.665595   3.594605   -2.473437 H        1 UNL1     0.0234
     116 H         0.983374   2.772745   -3.880528 H        1 UNL1     0.0234
     117 H         0.006237   3.78401   -2.796002 H        1 UNL1     0.0234
     118 H         -2.443332   -1.712671   -6.610832 H        1 UNL1     0.0309
     119 H         -2.787963   -3.323239   -7.314652 H        1 UNL1     0.0309
     120 H         -2.465012   -3.116004   -5.60734 H        1 UNL1     0.0309
     121 H         0.727029   2.503937   -6.203075 H        1 UNL1     0.0524
     122 H         -0.61095   1.482783   -6.745214 H        1 UNL1     0.0524
     123 H         -0.956166   3.046025   -5.963649 H        1 UNL1     0.0524
@<TRIPOS>BOND
     1     1     2    1
     2     1    42    1
     3     2     3    2
     4     3     4    1
     5     4     5    2
     6     5     7    1
     7     6    75    1
     8     6    76    1
     9     6    77    1
    10     7     9   am
    11     9    10    1
    12    10    11    2
    13    10    43    1
    14    11    14    1
    15    11    15    1
    16    12    13   ar
    17    12    27   ar
    18    12    43    1
    19    13    14    1
    20    13    30   ar
    21    14    17    2
    22    15    16    1
    23    16    17    1
    24    16    18    1
    25    16    22    1
    26    18    19    1
    27    19    20    1
    28    20    21    1
    29    21    22    1
    30    23    24    1
    31    23    88    1
    32    23    89    1
    33    24    25    1
    34    24    26    1
    35    24    90    1
    36    25    91    1
    37    25    92    1
    38    25    93    1
    39    26    94    1
    40    26    95    1
    41    26    96    1
    42    27    28   ar
    43    28    29   ar
    44    29    30   ar
    45    29    31    1
    46    30    33    1
    47    31    32    1
    48    32    33    1
    49    32    35    1
    50    34    97    1
    51    34    98    1
    52    34    99    1
    53    35    61    1
    54    36    37    1
    55    36    60    1
    56    37    38    1
    57    38    39    1
    58    39    40    1
    59    40    41    1
    60    41    42    1
    61    45   100    1
    62    47   101    1
    63    47   102    1
    64    47   103    1
    65    48   104    1
    66    49   105    1
    67    49   106    1
    68    49   107    1
    69    50   108    1
    70    51    59    1
    71    52   109    1
    72    52   110    1
    73    52   111    1
    74    53    54    1
    75    54    55    2
    76    54    56    1
    77    56   112    1
    78    56   113    1
    79    56   114    1
    80    57   115    1
    81    57   116    1
    82    57   117    1
    83    58   118    1
    84    58   119    1
    85    58   120    1
    86    59   121    1
    87    59   122    1
    88    59   123    1
    89    60    61    2
    90     1    47    1
    91     1    62    1
    92     2    63    1
    93     3    64    1
    94     4    65    1
    95     5     6    1
    96     7     8    2
    97     9    78    1
    98    15    79    1
    99    18    80    1
   100    18    81    1
   101    19    82    1
   102    19    83    1
   103    20    23    1
   104    21    84    1
   105    21    85    1
   106    22    86    1
   107    22    87    1
   108    27    45    1
   109    28    34    1
   110    32    58    1
   111    33    46    2
   112    36    51    1
   113    36    66    1
   114    37    52    1
   115    37    67    1
   116    38    53    1
   117    38    68    1
   118    42    48    1
   119    42    72    1
   120    43    44    2
   121    60    73    1
   122    61    74    1
   123    39    69    1
   124    39    57    1
   125    40    70    1
   126    40    50    1
   127    41    71    1
   128    41    49    1
