@<TRIPOS>MOLECULE
*****
 123 128 0 0 0
SMALL
GASTEIGER

@<TRIPOS>ATOM
     1 C         4.379412   1.68216   2.82893 C.3        1 UNL1     0.0009
     2 C         6.066232   1.234695   3.454588 C.2        1 UNL1     -0.0787
     3 C         6.935083   0.815318   4.534064 C.2        1 UNL1     -0.0649
     4 C         8.577481   0.412771   4.451344 C.2        1 UNL1     -0.0542
     5 C         9.639764   -0.268485   5.095179 C.2        1 UNL1     0.0115
     6 C         10.061513   -0.982611   6.408752 C.3        1 UNL1     -0.0348
     7 C         10.951473   -0.639774   4.247504 C.2        1 UNL1     0.2441
     8 O         11.994995   -0.00601   4.324521 O.2        1 UNL1     -0.2702
     9 N         10.905897   -1.891845   3.610014 N.am        1 UNL1     -0.2772
     10 C         10.332731   -1.77596   2.364473 C.2        1 UNL1     0.1049
     11 C         9.012552   -1.78277   2.328361 C.2        1 UNL1     0.0801
     12 C         10.421849   -0.430873   0.257311 C.ar        1 UNL1     0.0753
     13 C         9.002602   -0.29121   0.379134 C.ar        1 UNL1     0.0305
     14 C         8.237033   -1.073656   1.346983 C.2        1 UNL1     0.0924
     15 N         8.123778   -2.094259   3.28731 N.pl3        1 UNL1     -0.3170
     16 C         6.81638   -2.108948   2.686687 C.3        1 UNL1     0.1275
     17 N         6.921552   -1.146373   1.529055 N.2        1 UNL1     -0.2557
     18 C         6.616849   -3.490823   2.071617 C.3        1 UNL1     0.0016
     19 C         6.822487   -4.539022   3.153551 C.3        1 UNL1     0.0026
     20 N         5.865651   -4.299282   4.225007 N.3        1 UNL1     -0.3018
     21 C         5.938998   -2.971657   4.838523 C.3        1 UNL1     0.0026
     22 C         5.725141   -1.934491   3.73469 C.3        1 UNL1     0.0016
     23 C         5.773016   -5.405875   5.156412 C.3        1 UNL1     0.0012
     24 C         5.417888   -4.897943   6.562701 C.3        1 UNL1     -0.0339
     25 C         6.086354   -5.750276   7.65391 C.3        1 UNL1     -0.0615
     26 C         5.786998   -3.430625   6.695048 C.3        1 UNL1     -0.0615
     27 C         11.128273   0.227017   -0.746813 C.ar        1 UNL1     0.1347
     28 C         10.522104   1.016645   -1.707592 C.ar        1 UNL1     0.0342
     29 C         9.130612   1.178848   -1.538465 C.ar        1 UNL1     0.1435
     30 C         8.414871   0.555047   -0.515818 C.ar        1 UNL1     0.0774
     31 O         8.380245   1.828331   -2.45505 O.3        1 UNL1     -0.4436
     32 C         7.037574   1.387277   -2.202901 C.3        1 UNL1     0.3143
     33 C         7.036574   0.926137   -0.759446 C.2        1 UNL1     0.2504
     34 C         11.174958   1.545987   -2.954059 C.3        1 UNL1     -0.0327
     35 O         6.190109   2.540594   -2.273001 O.2        1 UNL1     -0.4528
     36 C         2.817861   1.282314   -3.478307 C.3        1 UNL1     0.0854
     37 C         1.881532   0.181346   -2.846896 C.3        1 UNL1     0.0236
     38 C         0.383712   0.66403   -2.538197 C.3        1 UNL1     0.1131
     39 C         0.140942   1.994818   -1.718236 C.3        1 UNL1     0.0200
     40 C         1.050134   2.328093   -0.360026 C.3        1 UNL1     0.0661
     41 C         1.327543   1.26784   0.934778 C.3        1 UNL1     0.0091
     42 C         2.783809   1.089937   2.03616 C.3        1 UNL1     0.0661
     43 C         11.105126   -1.370403   1.180715 C.2        1 UNL1     0.2131
     44 O         12.189956   -1.872494   0.948797 O.2        1 UNL1     -0.2851
     45 O         12.513055   0.0741   -0.767626 O.3        1 UNL1     -0.5056
     46 O         6.111145   0.893509   0.020536 O.2        1 UNL1     -0.2836
     47 C         3.978461   3.097697   3.324385 C.3        1 UNL1     -0.0566
     48 O         1.980822   1.063053   3.282598 O.3        1 UNL1     -0.3909
     49 C         0.914672   -0.126928   0.520466 C.3        1 UNL1     -0.0577
     50 O         2.250095   2.988035   -0.70973 O.3        1 UNL1     -0.3910
     51 O         2.285857   2.586757   -3.531529 O.3        1 UNL1     -0.3753
     52 C         2.66587   -0.764721   -1.880086 C.3        1 UNL1     -0.0564
     53 O         -0.569236   -0.465366   -2.276131 O.3        1 UNL1     -0.4608
     54 C         -1.596083   -0.445003   -1.368882 C.2        1 UNL1     0.3042
     55 O         -1.878855   -1.31052   -0.54138 O.2        1 UNL1     -0.2512
     56 C         -2.398342   0.824763   -1.397008 C.3        1 UNL1     0.0332
     57 C         -0.084871   3.176373   -2.772329 C.3        1 UNL1     -0.0567
     58 C         6.800145   0.163302   -3.117801 C.3        1 UNL1     0.0210
     59 C         1.925874   3.034437   -4.837614 C.3        1 UNL1     0.0372
     60 C         4.165608   1.393445   -2.856704 C.2        1 UNL1     -0.0208
     61 C         4.862963   2.470002   -2.491374 C.2        1 UNL1     0.0882
     62 H         4.806139   1.810563   1.826869 H        1 UNL1     0.0365
     63 H         6.671074   1.429559   2.56652 H        1 UNL1     0.0576
     64 H         6.54013   0.555686   5.518803 H        1 UNL1     0.0615
     65 H         8.887251   0.782239   3.470009 H        1 UNL1     0.0622
     66 H         2.988656   0.941291   -4.509121 H        1 UNL1     0.0645
     67 H         1.71604   -0.534461   -3.670784 H        1 UNL1     0.0362
     68 H         0.047518   0.886893   -3.562321 H        1 UNL1     0.0741
     69 H         -0.869194   1.98564   -1.331003 H        1 UNL1     0.0359
     70 H         0.424375   3.116986   0.099468 H        1 UNL1     0.0600
     71 H         0.489966   1.553185   1.601112 H        1 UNL1     0.0348
     72 H         2.865812   2.08901   1.584005 H        1 UNL1     0.0602
     73 H         4.619787   0.43405   -2.833689 H        1 UNL1     0.0628
     74 H         4.453312   3.478861   -2.431152 H        1 UNL1     0.1022
     75 H         10.740162   -1.84142   6.187581 H        1 UNL1     0.0279
     76 H         10.64745   -0.396371   7.113075 H        1 UNL1     0.0279
     77 H         9.222006   -1.49176   6.90443 H        1 UNL1     0.0279
     78 H         10.33051   -2.531726   4.153669 H        1 UNL1     0.1553
     79 H         8.35192   -2.627413   4.106231 H        1 UNL1     0.1484
     80 H         5.60884   -3.549474   1.643548 H        1 UNL1     0.0317
     81 H         7.317885   -3.65685   1.24661 H        1 UNL1     0.0317
     82 H         7.854027   -4.533061   3.53539 H        1 UNL1     0.0428
     83 H         6.677357   -5.51674   2.693056 H        1 UNL1     0.0428
     84 H         5.158952   -2.789364   5.58425 H        1 UNL1     0.0428
     85 H         6.876797   -2.82882   5.393003 H        1 UNL1     0.0428
     86 H         5.652364   -0.987767   4.237089 H        1 UNL1     0.0317
     87 H         4.731404   -2.061925   3.288212 H        1 UNL1     0.0317
     88 H         4.972487   -6.074523   4.813838 H        1 UNL1     0.0429
     89 H         6.699572   -5.994159   5.170141 H        1 UNL1     0.0429
     90 H         4.330958   -4.946791   6.698383 H        1 UNL1     0.0308
     91 H         7.140898   -5.932338   7.42611 H        1 UNL1     0.0233
     92 H         6.009081   -5.261019   8.6277 H        1 UNL1     0.0233
     93 H         5.611081   -6.732251   7.766494 H        1 UNL1     0.0233
     94 H         5.908265   -3.16541   7.750884 H        1 UNL1     0.0233
     95 H         6.736182   -3.236882   6.187626 H        1 UNL1     0.0233
     96 H         5.017419   -2.784995   6.262754 H        1 UNL1     0.0233
     97 H         11.118397   2.628705   -3.015311 H        1 UNL1     0.0280
     98 H         12.243449   1.297849   -2.998921 H        1 UNL1     0.0280
     99 H         10.674817   1.123117   -3.840701 H        1 UNL1     0.0280
     100 H         12.807409   -0.80876   -0.907399 H        1 UNL1     0.2922
     101 H         3.744802   3.733528   2.470699 H        1 UNL1     0.0236
     102 H         4.722849   3.549443   3.979208 H        1 UNL1     0.0236
     103 H         3.051909   3.080183   3.922204 H        1 UNL1     0.0236
     104 H         1.249695   1.702681   3.176301 H        1 UNL1     0.2098
     105 H         1.613077   -0.621528   -0.149916 H        1 UNL1     0.0234
     106 H         0.650987   -0.787889   1.346013 H        1 UNL1     0.0234
     107 H         -0.0   0.0   0.0 H        1 UNL1     0.0234
     108 H         2.837464   2.954404   0.069779 H        1 UNL1     0.2098
     109 H         3.473152   -1.30651   -2.392407 H        1 UNL1     0.0234
     110 H         3.070937   -0.245685   -1.004719 H        1 UNL1     0.0234
     111 H         2.01348   -1.537896   -1.452847 H        1 UNL1     0.0234
     112 H         -2.377715   1.299916   -0.411538 H        1 UNL1     0.0342
     113 H         -2.052468   1.510715   -2.168814 H        1 UNL1     0.0342
     114 H         -3.441723   0.566408   -1.624546 H        1 UNL1     0.0342
     115 H         -0.788301   3.931371   -2.395033 H        1 UNL1     0.0234
     116 H         0.831354   3.695877   -3.059899 H        1 UNL1     0.0234
     117 H         -0.595869   2.85119   -3.694868 H        1 UNL1     0.0234
     118 H         5.998626   -0.491907   -2.734036 H        1 UNL1     0.0309
     119 H         6.573283   0.438126   -4.152793 H        1 UNL1     0.0309
     120 H         7.669448   -0.501726   -3.16423 H        1 UNL1     0.0309
     121 H         1.978574   4.12282   -4.839253 H        1 UNL1     0.0524
     122 H         2.620028   2.667304   -5.611824 H        1 UNL1     0.0524
     123 H         0.91935   2.707533   -5.082844 H        1 UNL1     0.0524
@<TRIPOS>BOND
     1     1     2    1
     2     1    42    1
     3     2     3    2
     4     3     4    1
     5     4     5    2
     6     5     7    1
     7     6    75    1
     8     6    76    1
     9     6    77    1
    10     7     9   am
    11     9    10    1
    12    10    11    2
    13    10    43    1
    14    11    14    1
    15    11    15    1
    16    12    13   ar
    17    12    27   ar
    18    12    43    1
    19    13    14    1
    20    13    30   ar
    21    14    17    2
    22    15    16    1
    23    16    17    1
    24    16    18    1
    25    16    22    1
    26    18    19    1
    27    19    20    1
    28    20    21    1
    29    21    22    1
    30    23    24    1
    31    23    88    1
    32    23    89    1
    33    24    25    1
    34    24    26    1
    35    24    90    1
    36    25    91    1
    37    25    92    1
    38    25    93    1
    39    26    94    1
    40    26    95    1
    41    26    96    1
    42    27    28   ar
    43    28    29   ar
    44    29    30   ar
    45    29    31    1
    46    30    33    1
    47    31    32    1
    48    32    33    1
    49    32    35    1
    50    34    97    1
    51    34    98    1
    52    34    99    1
    53    35    61    1
    54    36    37    1
    55    36    60    1
    56    37    38    1
    57    38    39    1
    58    39    40    1
    59    40    41    1
    60    41    42    1
    61    45   100    1
    62    47   101    1
    63    47   102    1
    64    47   103    1
    65    48   104    1
    66    49   105    1
    67    49   106    1
    68    49   107    1
    69    50   108    1
    70    51    59    1
    71    52   109    1
    72    52   110    1
    73    52   111    1
    74    53    54    1
    75    54    55    2
    76    54    56    1
    77    56   112    1
    78    56   113    1
    79    56   114    1
    80    57   115    1
    81    57   116    1
    82    57   117    1
    83    58   118    1
    84    58   119    1
    85    58   120    1
    86    59   121    1
    87    59   122    1
    88    59   123    1
    89    60    61    2
    90     1    47    1
    91     1    62    1
    92     2    63    1
    93     3    64    1
    94     4    65    1
    95     5     6    1
    96     7     8    2
    97     9    78    1
    98    15    79    1
    99    18    80    1
   100    18    81    1
   101    19    82    1
   102    19    83    1
   103    20    23    1
   104    21    84    1
   105    21    85    1
   106    22    86    1
   107    22    87    1
   108    27    45    1
   109    28    34    1
   110    32    58    1
   111    33    46    2
   112    36    51    1
   113    36    66    1
   114    37    52    1
   115    37    67    1
   116    38    53    1
   117    38    68    1
   118    42    48    1
   119    42    72    1
   120    43    44    2
   121    60    73    1
   122    61    74    1
   123    39    69    1
   124    39    57    1
   125    40    70    1
   126    40    50    1
   127    41    71    1
   128    41    49    1
