@<TRIPOS>MOLECULE
*****
 123 128 0 0 0
SMALL
GASTEIGER

@<TRIPOS>ATOM
     1 C         5.102128   1.987976   -0.167425 C.3        1 UNL1     0.0009
     2 C         6.677012   2.252968   0.774146 C.2        1 UNL1     -0.0787
     3 C         7.568107   3.123498   1.511827 C.2        1 UNL1     -0.0649
     4 C         8.989191   2.704934   2.331388 C.2        1 UNL1     -0.0542
     5 C         9.912307   3.099847   3.330877 C.2        1 UNL1     0.0115
     6 C         10.339775   4.274676   4.253034 C.3        1 UNL1     -0.0348
     7 C         10.895788   1.997599   3.959211 C.2        1 UNL1     0.2441
     8 O         12.072227   1.895944   3.63955 O.2        1 UNL1     -0.2702
     9 N         10.38776   1.329313   5.086798 N.am        1 UNL1     -0.2772
     10 C         9.660802   0.225607   4.703803 C.2        1 UNL1     0.1049
     11 C         8.407345   0.447656   4.352005 C.2        1 UNL1     0.0801
     12 C         9.753497   -1.800087   3.239116 C.ar        1 UNL1     0.0753
     13 C         8.47566   -1.397799   2.735227 C.ar        1 UNL1     0.0305
     14 C         7.703202   -0.332816   3.370973 C.2        1 UNL1     0.0924
     15 N         7.649873   1.547727   4.502361 N.pl3        1 UNL1     -0.3170
     16 C         6.306986   1.213807   4.108148 C.3        1 UNL1     0.1275
     17 N         6.473964   0.099341   3.104252 N.2        1 UNL1     -0.2557
     18 C         5.621101   0.592098   5.320889 C.3        1 UNL1     0.0016
     19 C         5.70983   1.568124   6.483253 C.3        1 UNL1     0.0026
     20 N         5.063332   2.814851   6.097585 N.3        1 UNL1     -0.3018
     21 C         5.614635   3.457394   4.902775 C.3        1 UNL1     0.0026
     22 C         5.511193   2.461052   3.746705 C.3        1 UNL1     0.0016
     23 C         4.827802   3.699157   7.221495 C.3        1 UNL1     0.0012
     24 C         3.727469   3.13168   8.131986 C.3        1 UNL1     -0.0339
     25 C         4.243955   1.949571   8.968596 C.3        1 UNL1     -0.0615
     26 C         3.159528   4.232562   9.010781 C.3        1 UNL1     -0.0615
     27 C         10.428679   -2.894293   2.703429 C.ar        1 UNL1     0.1347
     28 C         9.910585   -3.684262   1.692698 C.ar        1 UNL1     0.0342
     29 C         8.673598   -3.240095   1.17914 C.ar        1 UNL1     0.1435
     30 C         8.002495   -2.124489   1.6814 C.ar        1 UNL1     0.0774
     31 O         7.987763   -3.96449   0.268158 O.3        1 UNL1     -0.4436
     32 C         6.641371   -3.473813   0.353819 C.3        1 UNL1     0.3143
     33 C         6.764257   -2.078577   0.932118 C.2        1 UNL1     0.2504
     34 C         10.456391   -5.010867   1.242901 C.3        1 UNL1     -0.0327
     35 O         6.154826   -3.328675   -0.986129 O.2        1 UNL1     -0.4528
     36 C         2.407498   -3.904186   -0.80063 C.3        1 UNL1     0.0854
     37 C         1.325034   -3.148895   0.062695 C.3        1 UNL1     0.0236
     38 C         0.102641   -2.533765   -0.773435 C.3        1 UNL1     0.1131
     39 C         0.392977   -1.62709   -2.03673 C.3        1 UNL1     0.0200
     40 C         1.583298   -0.459736   -1.983274 C.3        1 UNL1     0.0661
     41 C         1.773756   0.710357   -0.769924 C.3        1 UNL1     0.0091
     42 C         3.29082   1.49781   -0.103712 C.3        1 UNL1     0.0661
     43 C         10.295491   -1.068082   4.410727 C.2        1 UNL1     0.2131
     44 O         11.136384   -1.528171   5.161695 O.2        1 UNL1     -0.2851
     45 O         11.688035   -3.191433   3.220313 O.3        1 UNL1     -0.5056
     46 O         6.019351   -1.135013   0.788393 O.2        1 UNL1     -0.2836
     47 C         5.210097   2.611114   -1.585178 C.3        1 UNL1     -0.0566
     48 O         2.745042   2.874775   -0.1759 O.3        1 UNL1     -0.3909
     49 C         0.918316   0.326468   0.416814 C.3        1 UNL1     -0.0577
     50 O         2.839635   -1.008961   -2.326339 O.3        1 UNL1     -0.3910
     51 O         2.264063   -3.797753   -2.199033 O.3        1 UNL1     -0.3753
     52 C         1.968138   -2.394362   1.271846 C.3        1 UNL1     -0.0564
     53 O         -1.068458   -2.138329   0.077732 O.3        1 UNL1     -0.4608
     54 C         -1.863425   -1.040507   -0.12412 C.2        1 UNL1     0.3042
     55 O         -1.835813   0.024838   0.490791 O.2        1 UNL1     -0.2512
     56 C         -2.818569   -1.192799   -1.273563 C.3        1 UNL1     0.0332
     57 C         0.327705   -2.566301   -3.329709 C.3        1 UNL1     -0.0567
     58 C         5.911528   -4.375291   1.376655 C.3        1 UNL1     0.0210
     59 C         2.809859   -4.886672   -2.942153 C.3        1 UNL1     0.0372
     60 C         3.819317   -3.55354   -0.486028 C.2        1 UNL1     -0.0208
     61 C         4.844769   -3.286534   -1.295906 C.2        1 UNL1     0.0882
     62 H         5.364608   0.928177   -0.270581 H        1 UNL1     0.0365
     63 H         7.146267   1.272885   0.665953 H        1 UNL1     0.0576
     64 H         7.295559   4.154615   1.747673 H        1 UNL1     0.0615
     65 H         9.212955   1.69839   1.967684 H        1 UNL1     0.0622
     66 H         2.291202   -4.961892   -0.525349 H        1 UNL1     0.0645
     67 H         0.822291   -3.953918   0.626387 H        1 UNL1     0.0362
     68 H         -0.331716   -3.462285   -1.174318 H        1 UNL1     0.0741
     69 H         -0.494275   -1.050845   -2.262859 H        1 UNL1     0.0359
     70 H         1.296263   0.145761   -2.864208 H        1 UNL1     0.0600
     71 H         1.18136   1.538751   -1.205569 H        1 UNL1     0.0348
     72 H         3.570284   1.080668   -1.082082 H        1 UNL1     0.0602
     73 H         3.981303   -3.659902   0.557857 H        1 UNL1     0.0628
     74 H         4.753363   -3.105227   -2.367358 H        1 UNL1     0.1022
     75 H         10.410413   5.224696   3.670363 H        1 UNL1     0.0279
     76 H         9.65053   4.540255   5.051456 H        1 UNL1     0.0279
     77 H         11.369913   4.170873   4.624168 H        1 UNL1     0.0279
     78 H         9.760279   1.947498   5.596889 H        1 UNL1     0.1553
     79 H         7.858766   2.283252   5.152207 H        1 UNL1     0.1484
     80 H         4.578545   0.366968   5.065624 H        1 UNL1     0.0317
     81 H         6.090444   -0.360114   5.590447 H        1 UNL1     0.0317
     82 H         6.751599   1.741151   6.790974 H        1 UNL1     0.0428
     83 H         5.216364   1.104213   7.337845 H        1 UNL1     0.0428
     84 H         5.061415   4.34803   4.588884 H        1 UNL1     0.0428
     85 H         6.636928   3.823628   5.070428 H        1 UNL1     0.0428
     86 H         5.797762   3.007261   2.867204 H        1 UNL1     0.0317
     87 H         4.459472   2.212211   3.559466 H        1 UNL1     0.0317
     88 H         5.757889   3.770942   7.800355 H        1 UNL1     0.0429
     89 H         4.57918   4.713966   6.885157 H        1 UNL1     0.0429
     90 H         2.893001   2.782661   7.512258 H        1 UNL1     0.0308
     91 H         3.665747   1.041459   8.773375 H        1 UNL1     0.0233
     92 H         5.29788   1.756513   8.755105 H        1 UNL1     0.0233
     93 H         4.180489   2.141533   10.046538 H        1 UNL1     0.0233
     94 H         2.683665   3.800224   9.897614 H        1 UNL1     0.0233
     95 H         3.962969   4.893546   9.347745 H        1 UNL1     0.0233
     96 H         2.414864   4.827205   8.47427 H        1 UNL1     0.0233
     97 H         9.722993   -5.80619   1.336803 H        1 UNL1     0.0280
     98 H         10.753498   -4.999278   0.18609 H        1 UNL1     0.0280
     99 H         11.333755   -5.27578   1.855395 H        1 UNL1     0.0280
     100 H         12.272067   -2.455599   3.275782 H        1 UNL1     0.2922
     101 H         4.5982   2.041833   -2.284576 H        1 UNL1     0.0236
     102 H         6.238097   2.713997   -1.931031 H        1 UNL1     0.0236
     103 H         4.798013   3.633425   -1.620696 H        1 UNL1     0.0236
     104 H         3.483636   3.493696   -0.013461 H        1 UNL1     0.2098
     105 H         1.319933   -0.487254   1.015456 H        1 UNL1     0.0234
     106 H         0.628144   1.159187   1.057366 H        1 UNL1     0.0234
     107 H         -0.0   0.0   0.0 H        1 UNL1     0.0234
     108 H         3.029844   -1.720804   -1.685349 H        1 UNL1     0.2098
     109 H         2.58047   -3.058003   1.898218 H        1 UNL1     0.0234
     110 H         2.561769   -1.524736   0.970024 H        1 UNL1     0.0234
     111 H         1.204082   -1.976005   1.940532 H        1 UNL1     0.0234
     112 H         -3.406134   -0.277455   -1.392976 H        1 UNL1     0.0342
     113 H         -2.307241   -1.452407   -2.199301 H        1 UNL1     0.0342
     114 H         -3.513216   -2.010353   -1.03642 H        1 UNL1     0.0342
     115 H         0.312943   -1.980915   -4.259383 H        1 UNL1     0.0234
     116 H         1.152002   -3.278473   -3.403165 H        1 UNL1     0.0234
     117 H         -0.617507   -3.129191   -3.417292 H        1 UNL1     0.0234
     118 H         5.383746   -5.21319   0.888416 H        1 UNL1     0.0309
     119 H         6.576241   -4.772793   2.150187 H        1 UNL1     0.0309
     120 H         5.111273   -3.847219   1.906595 H        1 UNL1     0.0309
     121 H         3.06177   -4.51488   -3.934961 H        1 UNL1     0.0524
     122 H         3.735767   -5.279391   -2.489933 H        1 UNL1     0.0524
     123 H         2.084604   -5.692023   -3.016371 H        1 UNL1     0.0524
@<TRIPOS>BOND
     1     1     2    1
     2     1    42    1
     3     2     3    2
     4     3     4    1
     5     4     5    2
     6     5     7    1
     7     6    75    1
     8     6    76    1
     9     6    77    1
    10     7     9   am
    11     9    10    1
    12    10    11    2
    13    10    43    1
    14    11    14    1
    15    11    15    1
    16    12    13   ar
    17    12    27   ar
    18    12    43    1
    19    13    14    1
    20    13    30   ar
    21    14    17    2
    22    15    16    1
    23    16    17    1
    24    16    18    1
    25    16    22    1
    26    18    19    1
    27    19    20    1
    28    20    21    1
    29    21    22    1
    30    23    24    1
    31    23    88    1
    32    23    89    1
    33    24    25    1
    34    24    26    1
    35    24    90    1
    36    25    91    1
    37    25    92    1
    38    25    93    1
    39    26    94    1
    40    26    95    1
    41    26    96    1
    42    27    28   ar
    43    28    29   ar
    44    29    30   ar
    45    29    31    1
    46    30    33    1
    47    31    32    1
    48    32    33    1
    49    32    35    1
    50    34    97    1
    51    34    98    1
    52    34    99    1
    53    35    61    1
    54    36    37    1
    55    36    60    1
    56    37    38    1
    57    38    39    1
    58    39    40    1
    59    40    41    1
    60    41    42    1
    61    45   100    1
    62    47   101    1
    63    47   102    1
    64    47   103    1
    65    48   104    1
    66    49   105    1
    67    49   106    1
    68    49   107    1
    69    50   108    1
    70    51    59    1
    71    52   109    1
    72    52   110    1
    73    52   111    1
    74    53    54    1
    75    54    55    2
    76    54    56    1
    77    56   112    1
    78    56   113    1
    79    56   114    1
    80    57   115    1
    81    57   116    1
    82    57   117    1
    83    58   118    1
    84    58   119    1
    85    58   120    1
    86    59   121    1
    87    59   122    1
    88    59   123    1
    89    60    61    2
    90     1    47    1
    91     1    62    1
    92     2    63    1
    93     3    64    1
    94     4    65    1
    95     5     6    1
    96     7     8    2
    97     9    78    1
    98    15    79    1
    99    18    80    1
   100    18    81    1
   101    19    82    1
   102    19    83    1
   103    20    23    1
   104    21    84    1
   105    21    85    1
   106    22    86    1
   107    22    87    1
   108    27    45    1
   109    28    34    1
   110    32    58    1
   111    33    46    2
   112    36    51    1
   113    36    66    1
   114    37    52    1
   115    37    67    1
   116    38    53    1
   117    38    68    1
   118    42    48    1
   119    42    72    1
   120    43    44    2
   121    60    73    1
   122    61    74    1
   123    39    69    1
   124    39    57    1
   125    40    70    1
   126    40    50    1
   127    41    71    1
   128    41    49    1
