@<TRIPOS>MOLECULE
*****
 123 128 0 0 0
SMALL
GASTEIGER

@<TRIPOS>ATOM
     1 C         3.703002   -2.130457   2.202875 C.3        1 UNL1     0.0009
     2 C         4.615221   -3.743824   2.158836 C.2        1 UNL1     -0.0787
     3 C         4.717722   -5.139349   2.530389 C.2        1 UNL1     -0.0649
     4 C         5.875959   -6.267501   2.028277 C.2        1 UNL1     -0.0542
     5 C         6.170561   -7.646459   1.8913 C.2        1 UNL1     0.0115
     6 C         5.689662   -9.076845   2.260158 C.3        1 UNL1     -0.0348
     7 C         7.359596   -8.093046   0.909596 C.2        1 UNL1     0.2441
     8 O         8.466486   -8.423316   1.312389 O.2        1 UNL1     -0.2702
     9 N         6.968219   -8.330448   -0.419545 N.am        1 UNL1     -0.2772
     10 C         7.021107   -7.166161   -1.150956 C.2        1 UNL1     0.1049
     11 C         5.972347   -6.369406   -1.053454 C.2        1 UNL1     0.0801
     12 C         8.500534   -5.218338   -1.674993 C.ar        1 UNL1     0.0753
     13 C         7.383171   -4.383522   -1.353757 C.ar        1 UNL1     0.0305
     14 C         6.044984   -4.937356   -1.159916 C.2        1 UNL1     0.0924
     15 N         4.760265   -6.598334   -0.519624 N.pl3        1 UNL1     -0.3170
     16 C         3.925648   -5.466194   -0.82282 C.3        1 UNL1     0.1275
     17 N         4.888738   -4.312043   -0.95742 N.2        1 UNL1     -0.2557
     18 C         3.341458   -5.694664   -2.213585 C.3        1 UNL1     0.0016
     19 C         2.615191   -7.030345   -2.222604 C.3        1 UNL1     0.0026
     20 N         1.56657   -6.999439   -1.212422 N.3        1 UNL1     -0.3018
     21 C         2.024595   -6.724071   0.15094 C.3        1 UNL1     0.0026
     22 C         2.747131   -5.375865   0.137642 C.3        1 UNL1     0.0016
     23 C         0.628952   -8.097377   -1.339104 C.3        1 UNL1     0.0012
     24 C         -0.24221   -7.919801   -2.592619 C.3        1 UNL1     -0.0339
     25 C         0.275038   -8.773072   -3.762422 C.3        1 UNL1     -0.0615
     26 C         -1.691937   -8.235899   -2.268345 C.3        1 UNL1     -0.0615
     27 C         9.746004   -4.672619   -1.976844 C.ar        1 UNL1     0.1347
     28 C         9.984783   -3.310855   -2.028141 C.ar        1 UNL1     0.0342
     29 C         8.882894   -2.509667   -1.66058 C.ar        1 UNL1     0.1435
     30 C         7.639182   -3.043417   -1.320709 C.ar        1 UNL1     0.0774
     31 O         8.923812   -1.163526   -1.766592 O.3        1 UNL1     -0.4436
     32 C         7.546636   -0.758305   -1.774031 C.3        1 UNL1     0.3143
     33 C         6.797975   -1.886784   -1.094137 C.2        1 UNL1     0.2504
     34 C         11.215912   -2.651945   -2.58515 C.3        1 UNL1     -0.0327
     35 O         7.435501   0.388716   -0.922417 O.2        1 UNL1     -0.4528
     36 C         4.581897   2.457905   -2.33078 C.3        1 UNL1     0.0854
     37 C         3.080574   2.044623   -2.581279 C.3        1 UNL1     0.0236
     38 C         1.992905   2.990633   -1.878579 C.3        1 UNL1     0.1131
     39 C         2.12296   3.327063   -0.338394 C.3        1 UNL1     0.0200
     40 C         2.509532   2.130847   0.757994 C.3        1 UNL1     0.0661
     41 C         1.756872   0.615679   0.882009 C.3        1 UNL1     0.0091
     42 C         2.436092   -1.01299   1.383506 C.3        1 UNL1     0.0661
     43 C         8.266794   -6.681133   -1.763627 C.2        1 UNL1     0.2131
     44 O         8.98586   -7.441095   -2.386635 O.2        1 UNL1     -0.2851
     45 O         10.792339   -5.556166   -2.233682 O.3        1 UNL1     -0.5056
     46 O         5.75355   -1.83794   -0.483691 O.2        1 UNL1     -0.2836
     47 C         3.865413   -1.456881   3.592084 C.3        1 UNL1     -0.0566
     48 O         1.321034   -1.320068   2.311657 O.3        1 UNL1     -0.3909
     49 C         0.921678   0.382777   -0.357226 C.3        1 UNL1     -0.0577
     50 O         3.91114   1.984426   0.866525 O.3        1 UNL1     -0.3910
     51 O         4.788691   3.487815   -1.390592 O.3        1 UNL1     -0.3753
     52 C         2.90885   0.492152   -2.65403 C.3        1 UNL1     -0.0564
     53 O         0.600701   2.79931   -2.405351 O.3        1 UNL1     -0.4608
     54 C         -0.551412   3.159043   -1.756383 C.2        1 UNL1     0.3042
     55 O         -1.408657   2.41169   -1.28688 O.2        1 UNL1     -0.2512
     56 C         -0.703685   4.643024   -1.579387 C.3        1 UNL1     0.0332
     57 C         2.885569   4.727407   -0.213341 C.3        1 UNL1     -0.0567
     58 C         7.116626   -0.697358   -3.25825 C.3        1 UNL1     0.0210
     59 C         5.980861   4.247088   -1.585785 C.3        1 UNL1     0.0372
     60 C         5.486548   1.339629   -1.948387 C.2        1 UNL1     -0.0208
     61 C         6.418163   1.268201   -0.996685 C.2        1 UNL1     0.0882
     62 H         4.474195   -1.69864   1.553639 H        1 UNL1     0.0365
     63 H         5.518625   -3.452239   1.619106 H        1 UNL1     0.0576
     64 H         3.916624   -5.648018   3.07132 H        1 UNL1     0.0615
     65 H         6.659177   -5.653156   1.575915 H        1 UNL1     0.0622
     66 H         4.93747   2.812233   -3.308566 H        1 UNL1     0.0645
     67 H         2.913949   2.273535   -3.648235 H        1 UNL1     0.0362
     68 H         2.204774   3.935187   -2.402459 H        1 UNL1     0.0741
     69 H         1.166067   3.679574   0.022853 H        1 UNL1     0.0359
     70 H         2.209946   2.630627   1.69902 H        1 UNL1     0.0600
     71 H         0.974349   0.849251   1.63038 H        1 UNL1     0.0348
     72 H         3.138336   -0.259763   1.769277 H        1 UNL1     0.0602
     73 H         5.390834   0.55499   -2.657209 H        1 UNL1     0.0628
     74 H         6.542259   2.001345   -0.198977 H        1 UNL1     0.1022
     75 H         4.734169   -9.032747   2.836459 H        1 UNL1     0.0279
     76 H         5.43271   -9.731343   1.430292 H        1 UNL1     0.0279
     77 H         6.354244   -9.576475   2.980159 H        1 UNL1     0.0279
     78 H         6.00566   -8.660878   -0.438849 H        1 UNL1     0.1553
     79 H         4.391166   -7.515664   -0.348733 H        1 UNL1     0.1484
     80 H         2.662816   -4.868107   -2.456513 H        1 UNL1     0.0317
     81 H         4.128977   -5.687678   -2.97478 H        1 UNL1     0.0317
     82 H         3.30491   -7.869963   -2.051605 H        1 UNL1     0.0428
     83 H         2.207996   -7.174099   -3.223892 H        1 UNL1     0.0428
     84 H         1.210518   -6.627224   0.875999 H        1 UNL1     0.0428
     85 H         2.640059   -7.54284   0.548608 H        1 UNL1     0.0428
     86 H         2.94956   -5.145679   1.167217 H        1 UNL1     0.0317
     87 H         2.054334   -4.582451   -0.168334 H        1 UNL1     0.0317
     88 H         1.203641   -9.027157   -1.441742 H        1 UNL1     0.0429
     89 H         0.010341   -8.199439   -0.438172 H        1 UNL1     0.0429
     90 H         -0.225838   -6.866014   -2.895074 H        1 UNL1     0.0308
     91 H         0.318366   -9.832655   -3.493149 H        1 UNL1     0.0233
     92 H         -0.363376   -8.652052   -4.640711 H        1 UNL1     0.0233
     93 H         1.285093   -8.483038   -4.076275 H        1 UNL1     0.0233
     94 H         -2.280267   -8.298133   -3.190208 H        1 UNL1     0.0233
     95 H         -1.759031   -9.201717   -1.759762 H        1 UNL1     0.0233
     96 H         -2.13407   -7.467987   -1.62741 H        1 UNL1     0.0233
     97 H         11.146742   -1.568613   -2.556227 H        1 UNL1     0.0280
     98 H         12.117726   -2.910832   -2.015092 H        1 UNL1     0.0280
     99 H         11.357755   -2.961282   -3.633619 H        1 UNL1     0.0280
     100 H         11.233269   -5.413345   -3.052709 H        1 UNL1     0.2922
     101 H         3.37223   -0.485069   3.589402 H        1 UNL1     0.0236
     102 H         4.903246   -1.387938   3.916327 H        1 UNL1     0.0236
     103 H         3.358966   -2.025531   4.389793 H        1 UNL1     0.0236
     104 H         1.593747   -1.033692   3.205294 H        1 UNL1     0.2098
     105 H         0.708822   1.28141   -0.930779 H        1 UNL1     0.0234
     106 H         1.290354   -0.405631   -1.013288 H        1 UNL1     0.0234
     107 H         0.0   -0.0   0.0 H        1 UNL1     0.0234
     108 H         4.236341   1.658635   0.005205 H        1 UNL1     0.2098
     109 H         3.243548   -0.006953   -1.73393 H        1 UNL1     0.0234
     110 H         1.884161   0.182908   -2.886675 H        1 UNL1     0.0234
     111 H         3.508859   0.056098   -3.46384 H        1 UNL1     0.0234
     112 H         -1.629575   4.860202   -1.038179 H        1 UNL1     0.0342
     113 H         0.155294   5.085885   -1.077517 H        1 UNL1     0.0342
     114 H         -0.780189   5.101244   -2.575051 H        1 UNL1     0.0342
     115 H         2.346713   5.533475   -0.730135 H        1 UNL1     0.0234
     116 H         3.05286   5.051457   0.815763 H        1 UNL1     0.0234
     117 H         3.855716   4.748475   -0.738995 H        1 UNL1     0.0234
     118 H         7.404487   0.256242   -3.734474 H        1 UNL1     0.0309
     119 H         7.509024   -1.527832   -3.853681 H        1 UNL1     0.0309
     120 H         6.028451   -0.7231   -3.382019 H        1 UNL1     0.0309
     121 H         6.826753   3.575278   -1.442627 H        1 UNL1     0.0524
     122 H         6.052563   4.658312   -2.606467 H        1 UNL1     0.0524
     123 H         6.026711   5.064853   -0.872167 H        1 UNL1     0.0524
@<TRIPOS>BOND
     1     1     2    1
     2     1    42    1
     3     2     3    2
     4     3     4    1
     5     4     5    2
     6     5     7    1
     7     6    75    1
     8     6    76    1
     9     6    77    1
    10     7     9   am
    11     9    10    1
    12    10    11    2
    13    10    43    1
    14    11    14    1
    15    11    15    1
    16    12    13   ar
    17    12    27   ar
    18    12    43    1
    19    13    14    1
    20    13    30   ar
    21    14    17    2
    22    15    16    1
    23    16    17    1
    24    16    18    1
    25    16    22    1
    26    18    19    1
    27    19    20    1
    28    20    21    1
    29    21    22    1
    30    23    24    1
    31    23    88    1
    32    23    89    1
    33    24    25    1
    34    24    26    1
    35    24    90    1
    36    25    91    1
    37    25    92    1
    38    25    93    1
    39    26    94    1
    40    26    95    1
    41    26    96    1
    42    27    28   ar
    43    28    29   ar
    44    29    30   ar
    45    29    31    1
    46    30    33    1
    47    31    32    1
    48    32    33    1
    49    32    35    1
    50    34    97    1
    51    34    98    1
    52    34    99    1
    53    35    61    1
    54    36    37    1
    55    36    60    1
    56    37    38    1
    57    38    39    1
    58    39    40    1
    59    40    41    1
    60    41    42    1
    61    45   100    1
    62    47   101    1
    63    47   102    1
    64    47   103    1
    65    48   104    1
    66    49   105    1
    67    49   106    1
    68    49   107    1
    69    50   108    1
    70    51    59    1
    71    52   109    1
    72    52   110    1
    73    52   111    1
    74    53    54    1
    75    54    55    2
    76    54    56    1
    77    56   112    1
    78    56   113    1
    79    56   114    1
    80    57   115    1
    81    57   116    1
    82    57   117    1
    83    58   118    1
    84    58   119    1
    85    58   120    1
    86    59   121    1
    87    59   122    1
    88    59   123    1
    89    60    61    2
    90     1    47    1
    91     1    62    1
    92     2    63    1
    93     3    64    1
    94     4    65    1
    95     5     6    1
    96     7     8    2
    97     9    78    1
    98    15    79    1
    99    18    80    1
   100    18    81    1
   101    19    82    1
   102    19    83    1
   103    20    23    1
   104    21    84    1
   105    21    85    1
   106    22    86    1
   107    22    87    1
   108    27    45    1
   109    28    34    1
   110    32    58    1
   111    33    46    2
   112    36    51    1
   113    36    66    1
   114    37    52    1
   115    37    67    1
   116    38    53    1
   117    38    68    1
   118    42    48    1
   119    42    72    1
   120    43    44    2
   121    60    73    1
   122    61    74    1
   123    39    69    1
   124    39    57    1
   125    40    70    1
   126    40    50    1
   127    41    71    1
   128    41    49    1
