@<TRIPOS>MOLECULE
*****
 123 128 0 0 0
SMALL
GASTEIGER

@<TRIPOS>ATOM
     1 C         5.183564   1.720346   0.412723 C.3        1 UNL1     0.0009
     2 C         6.612494   2.516045   -0.460238 C.2        1 UNL1     -0.0787
     3 C         7.884122   2.408821   -1.143986 C.2        1 UNL1     -0.0649
     4 C         8.757683   3.636975   -1.915275 C.2        1 UNL1     -0.0542
     5 C         9.765809   3.921388   -2.869146 C.2        1 UNL1     0.0115
     6 C         10.877905   3.287293   -3.749197 C.3        1 UNL1     -0.0348
     7 C         9.860904   5.402534   -3.480824 C.2        1 UNL1     0.2441
     8 O         10.694786   6.220393   -3.117127 O.2        1 UNL1     -0.2702
     9 N         9.095179   5.610843   -4.641179 N.am        1 UNL1     -0.2772
     10 C         7.819317   6.00567   -4.310108 C.2        1 UNL1     0.1049
     11 C         6.972275   5.039869   -4.003563 C.2        1 UNL1     0.0801
     12 C         6.550452   7.623309   -2.88513 C.ar        1 UNL1     0.0753
     13 C         5.791465   6.500903   -2.423879 C.ar        1 UNL1     0.0305
     14 C         5.89169   5.192925   -3.067462 C.2        1 UNL1     0.0924
     15 N         7.085023   3.709811   -4.160921 N.pl3        1 UNL1     -0.3170
     16 C         5.8164   3.118735   -3.827039 C.3        1 UNL1     0.1275
     17 N         5.199562   4.080081   -2.840607 N.2        1 UNL1     -0.2557
     18 C         4.945885   3.179502   -5.078523 C.3        1 UNL1     0.0016
     19 C         5.680605   2.488237   -6.216032 C.3        1 UNL1     0.0026
     20 N         5.948385   1.109588   -5.830482 N.3        1 UNL1     -0.3018
     21 C         6.728493   0.947951   -4.601795 C.3        1 UNL1     0.0026
     22 C         5.969839   1.645762   -3.471574 C.3        1 UNL1     0.0016
     23 C         6.372267   0.284709   -6.944279 C.3        1 UNL1     0.0012
     24 C         5.201466   0.039385   -7.909057 C.3        1 UNL1     -0.0339
     25 C         5.265141   0.982286   -9.121881 C.3        1 UNL1     -0.0615
     26 C         5.174312   -1.418216   -8.335017 C.3        1 UNL1     -0.0615
     27 C         6.360776   8.893518   -2.345953 C.ar        1 UNL1     0.1347
     28 C         5.417124   9.170994   -1.373031 C.ar        1 UNL1     0.0342
     29 C         4.715774   8.041757   -0.899641 C.ar        1 UNL1     0.1435
     30 C         4.920639   6.757217   -1.404821 C.ar        1 UNL1     0.0774
     31 O         3.687784   8.163457   -0.031636 O.3        1 UNL1     -0.4436
     32 C         2.957125   6.934443   -0.160228 C.3        1 UNL1     0.3143
     33 C         3.957013   5.934194   -0.704231 C.2        1 UNL1     0.2504
     34 C         4.984444   10.540751   -0.929577 C.3        1 UNL1     -0.0327
     35 O         2.612906   6.503156   1.162178 O.2        1 UNL1     -0.4528
     36 C         -0.646459   4.588615   0.816975 C.3        1 UNL1     0.0854
     37 C         -0.971779   3.327533   -0.07261 C.3        1 UNL1     0.0236
     38 C         -1.568159   2.071958   0.727144 C.3        1 UNL1     0.1131
     39 C         -0.82686   1.54017   2.019408 C.3        1 UNL1     0.0200
     40 C         0.833895   1.385198   2.037165 C.3        1 UNL1     0.0661
     41 C         1.77201   0.607911   0.856751 C.3        1 UNL1     0.0091
     42 C         3.473376   0.959229   0.267403 C.3        1 UNL1     0.0661
     43 C         7.483127   7.407313   -4.019027 C.2        1 UNL1     0.2131
     44 O         7.877784   8.301254   -4.745562 O.2        1 UNL1     -0.2851
     45 O         7.172277   9.922779   -2.81874 O.3        1 UNL1     -0.5056
     46 O         3.968012   4.730923   -0.570541 O.2        1 UNL1     -0.2836
     47 C         5.598049   1.292256   1.846223 C.3        1 UNL1     -0.0566
     48 O         3.915011   -0.454215   0.346457 O.3        1 UNL1     -0.3909
     49 C         0.918818   0.376963   -0.37053 C.3        1 UNL1     -0.0577
     50 O         1.446599   2.600589   2.418137 O.3        1 UNL1     -0.3910
     51 O         -0.751664   4.403193   2.210525 O.3        1 UNL1     -0.3753
     52 C         0.055112   3.158139   -1.239551 C.3        1 UNL1     -0.0564
     53 O         -2.189519   1.034166   -0.16124 O.3        1 UNL1     -0.4608
     54 C         -2.426484   -0.27035   0.185191 C.2        1 UNL1     0.3042
     55 O         -1.868395   -1.273743   -0.257052 O.2        1 UNL1     -0.2512
     56 C         -3.453487   -0.427405   1.270231 C.3        1 UNL1     0.0332
     57 C         -1.525901   2.216498   3.289092 C.3        1 UNL1     -0.0567
     58 C         1.86791   7.182943   -1.229521 C.3        1 UNL1     0.0210
     59 C         -1.047486   5.585857   2.951917 C.3        1 UNL1     0.0372
     60 C         0.682661   5.209469   0.565693 C.2        1 UNL1     -0.0208
     61 C         1.610438   5.641664   1.420784 C.2        1 UNL1     0.0882
     62 H         4.714567   2.707455   0.504212 H        1 UNL1     0.0365
     63 H         6.353801   3.57162   -0.353901 H        1 UNL1     0.0576
     64 H         8.333036   1.438799   -1.369025 H        1 UNL1     0.0615
     65 H         8.280855   4.556034   -1.563922 H        1 UNL1     0.0622
     66 H         -1.39121   5.338614   0.515491 H        1 UNL1     0.0645
     67 H         -1.844226   3.640305   -0.67225 H        1 UNL1     0.0362
     68 H         -2.507579   2.515161   1.091265 H        1 UNL1     0.0741
     69 H         -1.16131   0.531494   2.222199 H        1 UNL1     0.0359
     70 H         0.954529   0.726484   2.918416 H        1 UNL1     0.0600
     71 H         1.815885   -0.412396   1.28571 H        1 UNL1     0.0348
     72 H         3.384345   1.45053   1.247205 H        1 UNL1     0.0602
     73 H         0.786799   5.403394   -0.472958 H        1 UNL1     0.0628
     74 H         1.607038   5.433833   2.491313 H        1 UNL1     0.1022
     75 H         10.899327   2.178831   -3.615453 H        1 UNL1     0.0279
     76 H         10.762866   3.391173   -4.825786 H        1 UNL1     0.0279
     77 H         11.890194   3.5649   -3.420706 H        1 UNL1     0.0279
     78 H         9.020693   4.739928   -5.162751 H        1 UNL1     0.1553
     79 H         7.738915   3.276432   -4.786654 H        1 UNL1     0.1484
     80 H         3.984701   2.694595   -4.869339 H        1 UNL1     0.0317
     81 H         4.721332   4.216845   -5.34898 H        1 UNL1     0.0317
     82 H         6.610632   3.01355   -6.478729 H        1 UNL1     0.0428
     83 H         5.043049   2.544694   -7.09886 H        1 UNL1     0.0428
     84 H         6.847282   -0.094882   -4.291635 H        1 UNL1     0.0428
     85 H         7.759074   1.309795   -4.721334 H        1 UNL1     0.0428
     86 H         6.497799   1.394755   -2.57033 H        1 UNL1     0.0317
     87 H         4.98958   1.17408   -3.331202 H        1 UNL1     0.0317
     88 H         7.163762   0.820576   -7.484349 H        1 UNL1     0.0429
     89 H         6.804448   -0.662634   -6.597096 H        1 UNL1     0.0429
     90 H         4.257254   0.214427   -7.379872 H        1 UNL1     0.0308
     91 H         6.211953   0.875204   -9.659638 H        1 UNL1     0.0233
     92 H         4.438474   0.784982   -9.808395 H        1 UNL1     0.0233
     93 H         5.179549   2.037495   -8.83545 H        1 UNL1     0.0233
     94 H         4.469493   -1.55699   -9.161945 H        1 UNL1     0.0233
     95 H         6.165217   -1.724715   -8.681612 H        1 UNL1     0.0233
     96 H         4.871824   -2.069433   -7.510162 H        1 UNL1     0.0233
     97 H         4.195141   10.497573   -0.185019 H        1 UNL1     0.0280
     98 H         5.804754   11.103866   -0.465627 H        1 UNL1     0.0280
     99 H         4.610356   11.108519   -1.797213 H        1 UNL1     0.0280
     100 H         6.705305   10.679932   -3.125788 H        1 UNL1     0.2922
     101 H         4.737097   0.876317   2.36911 H        1 UNL1     0.0236
     102 H         6.072694   2.093023   2.412322 H        1 UNL1     0.0236
     103 H         6.340388   0.476761   1.836533 H        1 UNL1     0.0236
     104 H         4.340954   -0.581914   1.21665 H        1 UNL1     0.2098
     105 H         0.703098   1.275531   -0.943114 H        1 UNL1     0.0234
     106 H         1.274253   -0.414843   -1.029799 H        1 UNL1     0.0234
     107 H         0.0   -0.0   0.0 H        1 UNL1     0.0234
     108 H         1.256751   3.253421   1.71704 H        1 UNL1     0.2098
     109 H         1.086146   3.052136   -0.874251 H        1 UNL1     0.0234
     110 H         -0.185047   2.323018   -1.906365 H        1 UNL1     0.0234
     111 H         0.063049   4.033945   -1.902005 H        1 UNL1     0.0234
     112 H         -3.579373   -1.486922   1.512968 H        1 UNL1     0.0342
     113 H         -3.20207   0.149794   2.158755 H        1 UNL1     0.0342
     114 H         -4.413897   -0.052486   0.890477 H        1 UNL1     0.0342
     115 H         -2.598838   1.984633   3.336348 H        1 UNL1     0.0234
     116 H         -1.085034   1.927241   4.245133 H        1 UNL1     0.0234
     117 H         -1.547922   3.318956   3.243879 H        1 UNL1     0.0234
     118 H         0.97501   7.674663   -0.805319 H        1 UNL1     0.0309
     119 H         2.228037   7.767931   -2.081753 H        1 UNL1     0.0309
     120 H         1.469064   6.252172   -1.647483 H        1 UNL1     0.0309
     121 H         -0.207148   6.269068   2.83187 H        1 UNL1     0.0524
     122 H         -1.948901   6.099447   2.578134 H        1 UNL1     0.0524
     123 H         -1.188351   5.345804   4.001977 H        1 UNL1     0.0524
@<TRIPOS>BOND
     1     1     2    1
     2     1    42    1
     3     2     3    2
     4     3     4    1
     5     4     5    2
     6     5     7    1
     7     6    75    1
     8     6    76    1
     9     6    77    1
    10     7     9   am
    11     9    10    1
    12    10    11    2
    13    10    43    1
    14    11    14    1
    15    11    15    1
    16    12    13   ar
    17    12    27   ar
    18    12    43    1
    19    13    14    1
    20    13    30   ar
    21    14    17    2
    22    15    16    1
    23    16    17    1
    24    16    18    1
    25    16    22    1
    26    18    19    1
    27    19    20    1
    28    20    21    1
    29    21    22    1
    30    23    24    1
    31    23    88    1
    32    23    89    1
    33    24    25    1
    34    24    26    1
    35    24    90    1
    36    25    91    1
    37    25    92    1
    38    25    93    1
    39    26    94    1
    40    26    95    1
    41    26    96    1
    42    27    28   ar
    43    28    29   ar
    44    29    30   ar
    45    29    31    1
    46    30    33    1
    47    31    32    1
    48    32    33    1
    49    32    35    1
    50    34    97    1
    51    34    98    1
    52    34    99    1
    53    35    61    1
    54    36    37    1
    55    36    60    1
    56    37    38    1
    57    38    39    1
    58    39    40    1
    59    40    41    1
    60    41    42    1
    61    45   100    1
    62    47   101    1
    63    47   102    1
    64    47   103    1
    65    48   104    1
    66    49   105    1
    67    49   106    1
    68    49   107    1
    69    50   108    1
    70    51    59    1
    71    52   109    1
    72    52   110    1
    73    52   111    1
    74    53    54    1
    75    54    55    2
    76    54    56    1
    77    56   112    1
    78    56   113    1
    79    56   114    1
    80    57   115    1
    81    57   116    1
    82    57   117    1
    83    58   118    1
    84    58   119    1
    85    58   120    1
    86    59   121    1
    87    59   122    1
    88    59   123    1
    89    60    61    2
    90     1    47    1
    91     1    62    1
    92     2    63    1
    93     3    64    1
    94     4    65    1
    95     5     6    1
    96     7     8    2
    97     9    78    1
    98    15    79    1
    99    18    80    1
   100    18    81    1
   101    19    82    1
   102    19    83    1
   103    20    23    1
   104    21    84    1
   105    21    85    1
   106    22    86    1
   107    22    87    1
   108    27    45    1
   109    28    34    1
   110    32    58    1
   111    33    46    2
   112    36    51    1
   113    36    66    1
   114    37    52    1
   115    37    67    1
   116    38    53    1
   117    38    68    1
   118    42    48    1
   119    42    72    1
   120    43    44    2
   121    60    73    1
   122    61    74    1
   123    39    69    1
   124    39    57    1
   125    40    70    1
   126    40    50    1
   127    41    71    1
   128    41    49    1
