@<TRIPOS>MOLECULE
*****
 123 128 0 0 0
SMALL
GASTEIGER

@<TRIPOS>ATOM
     1 C         5.166327   1.749659   0.497342 C.3        1 UNL1     0.0009
     2 C         6.605   2.552879   -0.352418 C.2        1 UNL1     -0.0787
     3 C         7.88842   2.452434   -1.01483 C.2        1 UNL1     -0.0649
     4 C         8.767643   3.684992   -1.77254 C.2        1 UNL1     -0.0542
     5 C         9.789852   3.974457   -2.709758 C.2        1 UNL1     0.0115
     6 C         10.920047   3.346084   -3.570646 C.3        1 UNL1     -0.0348
     7 C         9.886626   5.455657   -3.321044 C.2        1 UNL1     0.2441
     8 O         10.709644   6.278567   -2.944233 O.2        1 UNL1     -0.2702
     9 N         9.139129   5.658678   -4.494152 N.am        1 UNL1     -0.2772
     10 C         7.855696   6.046429   -4.184685 C.2        1 UNL1     0.1049
     11 C         7.009217   5.076015   -3.89144 C.2        1 UNL1     0.0801
     12 C         6.554058   7.657846   -2.782399 C.ar        1 UNL1     0.0753
     13 C         5.793943   6.531455   -2.332869 C.ar        1 UNL1     0.0305
     14 C         5.91235   5.223582   -2.973571 C.2        1 UNL1     0.0924
     15 N         7.132183   3.746506   -4.045756 N.pl3        1 UNL1     -0.3170
     16 C         5.861586   3.148413   -3.732509 C.3        1 UNL1     0.1275
     17 N         5.222929   4.106957   -2.7573 N.2        1 UNL1     -0.2557
     18 C         5.011677   3.203225   -4.99835 C.3        1 UNL1     0.0016
     19 C         5.769166   2.515319   -6.122888 C.3        1 UNL1     0.0026
     20 N         6.038386   1.138525   -5.731752 N.3        1 UNL1     -0.3018
     21 C         6.798859   0.982309   -4.490121 C.3        1 UNL1     0.0026
     22 C         6.017524   1.676618   -3.373275 C.3        1 UNL1     0.0016
     23 C         6.485455   0.315241   -6.837634 C.3        1 UNL1     0.0012
     24 C         5.331173   0.058831   -7.819288 C.3        1 UNL1     -0.0339
     25 C         5.34996   1.062486   -8.983925 C.3        1 UNL1     -0.0615
     26 C         5.379323   -1.375457   -8.316558 C.3        1 UNL1     -0.0615
     27 C         6.348168   8.927357   -2.247545 C.ar        1 UNL1     0.1347
     28 C         5.386887   9.200156   -1.29069 C.ar        1 UNL1     0.0342
     29 C         4.684238   8.067275   -0.828058 C.ar        1 UNL1     0.1435
     30 C         4.904831   6.783545   -1.328655 C.ar        1 UNL1     0.0774
     31 O         3.64127   8.183735   0.022625 O.3        1 UNL1     -0.4436
     32 C         2.919902   6.950449   -0.117043 C.3        1 UNL1     0.3143
     33 C         3.934414   5.95554   -0.643481 C.2        1 UNL1     0.2504
     34 C         4.939052   10.567746   -0.855672 C.3        1 UNL1     -0.0327
     35 O         2.556207   6.518205   1.199826 O.2        1 UNL1     -0.4528
     36 C         -0.685946   4.584721   0.802112 C.3        1 UNL1     0.0854
     37 C         -0.989194   3.321112   -0.091675 C.3        1 UNL1     0.0236
     38 C         -1.591596   2.062747   0.699131 C.3        1 UNL1     0.1131
     39 C         -0.868864   1.536212   2.004002 C.3        1 UNL1     0.0200
     40 C         0.792226   1.390789   2.049509 C.3        1 UNL1     0.0661
     41 C         1.754285   0.617998   0.88553 C.3        1 UNL1     0.0091
     42 C         3.46318   0.978626   0.324256 C.3        1 UNL1     0.0661
     43 C         7.506689   7.446341   -3.900442 C.2        1 UNL1     0.2131
     44 O         7.908251   8.341977   -4.621082 O.2        1 UNL1     -0.2851
     45 O         7.161513   9.960898   -2.707656 O.3        1 UNL1     -0.5056
     46 O         3.950077   4.752455   -0.508591 O.2        1 UNL1     -0.2836
     47 C         5.559352   1.325052   1.937905 C.3        1 UNL1     -0.0566
     48 O         3.911526   -0.432199   0.41186 O.3        1 UNL1     -0.3909
     49 C         0.922964   0.381217   -0.355572 C.3        1 UNL1     -0.0577
     50 O         1.391538   2.609969   2.439572 O.3        1 UNL1     -0.3910
     51 O         -0.813255   4.399765   2.193879 O.3        1 UNL1     -0.3753
     52 C         0.05792   3.156723   -1.24123 C.3        1 UNL1     -0.0564
     53 O         -2.192137   1.020726   -0.198571 O.3        1 UNL1     -0.4608
     54 C         -2.415245   -0.288117   0.140666 C.2        1 UNL1     0.3042
     55 O         -1.842061   -1.282624   -0.302341 O.2        1 UNL1     -0.2512
     56 C         -3.447118   -0.462552   1.218407 C.3        1 UNL1     0.0332
     57 C         -1.592792   2.209487   3.261301 C.3        1 UNL1     -0.0567
     58 C         1.847221   7.191874   -1.204516 C.3        1 UNL1     0.0210
     59 C         -1.166753   5.573187   2.924623 C.3        1 UNL1     0.0372
     60 C         0.643592   5.213002   0.572435 C.2        1 UNL1     -0.0208
     61 C         1.554526   5.651171   1.442466 C.2        1 UNL1     0.0882
     62 H         4.690227   2.734128   0.58017 H        1 UNL1     0.0365
     63 H         6.338533   3.607033   -0.251305 H        1 UNL1     0.0576
     64 H         8.346563   1.484833   -1.231537 H        1 UNL1     0.0615
     65 H         8.27978   4.601567   -1.429957 H        1 UNL1     0.0622
     66 H         -1.429862   5.330202   0.487639 H        1 UNL1     0.0645
     67 H         -1.853323   3.628412   -0.706011 H        1 UNL1     0.0362
     68 H         -2.539466   2.500828   1.047196 H        1 UNL1     0.0741
     69 H         -1.200859   0.525788   2.20207 H        1 UNL1     0.0359
     70 H         0.901954   0.733454   2.933211 H        1 UNL1     0.0600
     71 H         1.79686   -0.401712   1.316037 H        1 UNL1     0.0348
     72 H         3.355049   1.470157   1.302019 H        1 UNL1     0.0602
     73 H         0.763883   5.406728   -0.464507 H        1 UNL1     0.0628
     74 H         1.534508   5.444143   2.512969 H        1 UNL1     0.1022
     75 H         10.964151   2.24133   -3.413772 H        1 UNL1     0.0279
     76 H         10.808904   3.425209   -4.649745 H        1 UNL1     0.0279
     77 H         11.924373   3.651881   -3.242746 H        1 UNL1     0.0279
     78 H         9.078319   4.786952   -5.016141 H        1 UNL1     0.1553
     79 H         7.798865   3.31641   -4.660154 H        1 UNL1     0.1484
     80 H         4.04994   2.712968   -4.804764 H        1 UNL1     0.0317
     81 H         4.785718   4.239054   -5.273397 H        1 UNL1     0.0317
     82 H         6.70041   3.045761   -6.370533 H        1 UNL1     0.0428
     83 H         5.146071   2.56744   -7.016245 H        1 UNL1     0.0428
     84 H         6.918443   -0.059588   -4.177131 H        1 UNL1     0.0428
     85 H         7.829197   1.349971   -4.592816 H        1 UNL1     0.0428
     86 H         6.531848   1.429336   -2.463159 H        1 UNL1     0.0317
     87 H         5.037783   1.199424   -3.248819 H        1 UNL1     0.0317
     88 H         7.280557   0.856593   -7.366826 H        1 UNL1     0.0429
     89 H         6.920047   -0.627989   -6.482359 H        1 UNL1     0.0429
     90 H         4.377901   0.159445   -7.286971 H        1 UNL1     0.0308
     91 H         6.298899   1.023651   -9.527164 H        1 UNL1     0.0233
     92 H         4.5306   0.863449   -9.67865 H        1 UNL1     0.0233
     93 H         5.219289   2.097473   -8.645453 H        1 UNL1     0.0233
     94 H         4.683495   -1.509162   -9.151891 H        1 UNL1     0.0233
     95 H         6.385042   -1.61336   -8.67418 H        1 UNL1     0.0233
     96 H         5.109706   -2.081204   -7.525864 H        1 UNL1     0.0233
     97 H         4.14401   10.520496   -0.117495 H        1 UNL1     0.0280
     98 H         5.750734   11.13937   -0.386977 H        1 UNL1     0.0280
     99 H         4.567391   11.12932   -1.728367 H        1 UNL1     0.0280
     100 H         6.695237   10.710016   -3.034813 H        1 UNL1     0.2922
     101 H         4.695368   0.893147   2.44253 H        1 UNL1     0.0236
     102 H         6.008815   2.132358   2.515161 H        1 UNL1     0.0236
     103 H         6.315585   0.522374   1.94128 H        1 UNL1     0.0236
     104 H         4.329044   -0.555218   1.286797 H        1 UNL1     0.2098
     105 H         0.71229   1.277983   -0.932841 H        1 UNL1     0.0234
     106 H         1.293427   -0.409548   -1.00778 H        1 UNL1     0.0234
     107 H         0.0   -0.0   0.0 H        1 UNL1     0.0234
     108 H         1.192203   3.266594   1.744678 H        1 UNL1     0.2098
     109 H         1.081108   3.03834   -0.858105 H        1 UNL1     0.0234
     110 H         -0.176269   2.331154   -1.921917 H        1 UNL1     0.0234
     111 H         0.085032   4.039882   -1.893336 H        1 UNL1     0.0234
     112 H         -3.574132   -1.525836   1.443444 H        1 UNL1     0.0342
     113 H         -3.199674   0.100203   2.117251 H        1 UNL1     0.0342
     114 H         -4.405798   -0.081448   0.840443 H        1 UNL1     0.0342
     115 H         -2.657076   1.941251   3.311681 H        1 UNL1     0.0234
     116 H         -1.143464   1.952209   4.222531 H        1 UNL1     0.0234
     117 H         -1.6531   3.309571   3.19711 H        1 UNL1     0.0234
     118 H         0.94521   7.680192   -0.795948 H        1 UNL1     0.0309
     119 H         2.218548   7.776966   -2.051856 H        1 UNL1     0.0309
     120 H         1.459612   6.258476   -1.627167 H        1 UNL1     0.0309
     121 H         -0.367966   6.301203   2.785744 H        1 UNL1     0.0524
     122 H         -2.100211   6.030209   2.556079 H        1 UNL1     0.0524
     123 H         -1.281265   5.338975   3.979197 H        1 UNL1     0.0524
@<TRIPOS>BOND
     1     1     2    1
     2     1    42    1
     3     2     3    2
     4     3     4    1
     5     4     5    2
     6     5     7    1
     7     6    75    1
     8     6    76    1
     9     6    77    1
    10     7     9   am
    11     9    10    1
    12    10    11    2
    13    10    43    1
    14    11    14    1
    15    11    15    1
    16    12    13   ar
    17    12    27   ar
    18    12    43    1
    19    13    14    1
    20    13    30   ar
    21    14    17    2
    22    15    16    1
    23    16    17    1
    24    16    18    1
    25    16    22    1
    26    18    19    1
    27    19    20    1
    28    20    21    1
    29    21    22    1
    30    23    24    1
    31    23    88    1
    32    23    89    1
    33    24    25    1
    34    24    26    1
    35    24    90    1
    36    25    91    1
    37    25    92    1
    38    25    93    1
    39    26    94    1
    40    26    95    1
    41    26    96    1
    42    27    28   ar
    43    28    29   ar
    44    29    30   ar
    45    29    31    1
    46    30    33    1
    47    31    32    1
    48    32    33    1
    49    32    35    1
    50    34    97    1
    51    34    98    1
    52    34    99    1
    53    35    61    1
    54    36    37    1
    55    36    60    1
    56    37    38    1
    57    38    39    1
    58    39    40    1
    59    40    41    1
    60    41    42    1
    61    45   100    1
    62    47   101    1
    63    47   102    1
    64    47   103    1
    65    48   104    1
    66    49   105    1
    67    49   106    1
    68    49   107    1
    69    50   108    1
    70    51    59    1
    71    52   109    1
    72    52   110    1
    73    52   111    1
    74    53    54    1
    75    54    55    2
    76    54    56    1
    77    56   112    1
    78    56   113    1
    79    56   114    1
    80    57   115    1
    81    57   116    1
    82    57   117    1
    83    58   118    1
    84    58   119    1
    85    58   120    1
    86    59   121    1
    87    59   122    1
    88    59   123    1
    89    60    61    2
    90     1    47    1
    91     1    62    1
    92     2    63    1
    93     3    64    1
    94     4    65    1
    95     5     6    1
    96     7     8    2
    97     9    78    1
    98    15    79    1
    99    18    80    1
   100    18    81    1
   101    19    82    1
   102    19    83    1
   103    20    23    1
   104    21    84    1
   105    21    85    1
   106    22    86    1
   107    22    87    1
   108    27    45    1
   109    28    34    1
   110    32    58    1
   111    33    46    2
   112    36    51    1
   113    36    66    1
   114    37    52    1
   115    37    67    1
   116    38    53    1
   117    38    68    1
   118    42    48    1
   119    42    72    1
   120    43    44    2
   121    60    73    1
   122    61    74    1
   123    39    69    1
   124    39    57    1
   125    40    70    1
   126    40    50    1
   127    41    71    1
   128    41    49    1
