@<TRIPOS>MOLECULE
*****
 123 128 0 0 0
SMALL
GASTEIGER

@<TRIPOS>ATOM
     1 C         -1.062405   -5.035004   1.879322 C.3        1 UNL1     0.0009
     2 C         -2.061097   -6.050486   3.066103 C.2        1 UNL1     -0.0787
     3 C         -2.168387   -6.786409   4.30826 C.2        1 UNL1     -0.0649
     4 C         -3.551908   -7.48927   4.985174 C.2        1 UNL1     -0.0542
     5 C         -4.141102   -7.978139   6.177204 C.2        1 UNL1     0.0115
     6 C         -3.856631   -8.351901   7.657981 C.3        1 UNL1     -0.0348
     7 C         -5.734964   -8.159399   6.238344 C.2        1 UNL1     0.2441
     8 O         -6.28572   -9.246316   6.129693 O.2        1 UNL1     -0.2702
     9 N         -6.439721   -7.027914   6.684673 N.am        1 UNL1     -0.2772
     10 C         -6.738179   -6.19998   5.626954 C.2        1 UNL1     0.1049
     11 C         -5.78112   -5.372962   5.247083 C.2        1 UNL1     0.0801
     12 C         -7.707436   -6.198872   3.320902 C.ar        1 UNL1     0.0753
     13 C         -6.539709   -5.477499   2.915141 C.ar        1 UNL1     0.0305
     14 C         -5.602285   -4.927474   3.891747 C.2        1 UNL1     0.0924
     15 N         -4.625438   -5.052244   5.853768 N.pl3        1 UNL1     -0.3170
     16 C         -4.023105   -3.97692   5.111389 C.3        1 UNL1     0.1275
     17 N         -4.53463   -4.157143   3.702991 N.2        1 UNL1     -0.2557
     18 C         -4.636265   -2.676313   5.621448 C.3        1 UNL1     0.0016
     19 C         -4.425694   -2.596221   7.125055 C.3        1 UNL1     0.0026
     20 N         -2.996435   -2.645057   7.400487 N.3        1 UNL1     -0.3018
     21 C         -2.305683   -3.832346   6.892969 C.3        1 UNL1     0.0026
     22 C         -2.526548   -3.890455   5.380442 C.3        1 UNL1     0.0016
     23 C         -2.672093   -2.277576   8.764453 C.3        1 UNL1     0.0012
     24 C         -2.325327   -0.78295   8.851648 C.3        1 UNL1     -0.0339
     25 C         -3.277573   -0.039265   9.802551 C.3        1 UNL1     -0.0615
     26 C         -0.87415   -0.608239   9.264371 C.3        1 UNL1     -0.0615
     27 C         -8.657899   -6.61504   2.391633 C.ar        1 UNL1     0.1347
     28 C         -8.56979   -6.334912   1.039665 C.ar        1 UNL1     0.0342
     29 C         -7.387618   -5.666291   0.656811 C.ar        1 UNL1     0.1435
     30 C         -6.409414   -5.274997   1.571812 C.ar        1 UNL1     0.0774
     31 O         -7.20483   -5.225907   -0.607173 O.3        1 UNL1     -0.4436
     32 C         -6.177723   -4.228816   -0.498847 C.3        1 UNL1     0.3143
     33 C         -5.42925   -4.567791   0.774376 C.2        1 UNL1     0.2504
     34 C         -9.66377   -6.526409   0.026435 C.3        1 UNL1     -0.0327
     35 O         -5.267086   -4.435487   -1.585713 O.2        1 UNL1     -0.4528
     36 C         -3.846846   -1.015234   -2.418106 C.3        1 UNL1     0.0854
     37 C         -3.076337   -0.00266   -1.486155 C.3        1 UNL1     0.0236
     38 C         -1.640444   0.45892   -2.031039 C.3        1 UNL1     0.1131
     39 C         -0.588481   -0.629099   -2.491318 C.3        1 UNL1     0.0200
     40 C         -0.345225   -2.00665   -1.582685 C.3        1 UNL1     0.0661
     41 C         -0.062015   -2.057137   0.089097 C.3        1 UNL1     0.0091
     42 C         -0.52471   -3.319847   1.336848 C.3        1 UNL1     0.0661
     43 C         -7.917602   -6.411287   4.774508 C.2        1 UNL1     0.2131
     44 O         -9.005427   -6.64199   5.270644 O.2        1 UNL1     -0.2851
     45 O         -9.742359   -7.351579   2.86375 O.3        1 UNL1     -0.5056
     46 O         -4.276849   -4.327807   1.057631 O.2        1 UNL1     -0.2836
     47 C         -0.066318   -5.937652   1.102778 C.3        1 UNL1     -0.0566
     48 O         0.821763   -3.365788   1.956538 O.3        1 UNL1     -0.3909
     49 C         -0.398289   -0.707001   0.682009 C.3        1 UNL1     -0.0577
     50 O         -1.264167   -3.016588   -1.94778 O.3        1 UNL1     -0.3910
     51 O         -3.117949   -1.521129   -3.513648 O.3        1 UNL1     -0.3753
     52 C         -3.337052   -0.291828   0.028229 C.3        1 UNL1     -0.0564
     53 O         -1.08999   1.664462   -1.32677 O.3        1 UNL1     -0.4608
     54 C         0.228123   1.868902   -1.012584 C.2        1 UNL1     0.3042
     55 O         0.762987   1.736125   0.087474 O.2        1 UNL1     -0.2512
     56 C         1.077243   2.241699   -2.194418 C.3        1 UNL1     0.0332
     57 C         -0.729731   -0.796606   -4.075668 C.3        1 UNL1     -0.0567
     58 C         -6.900615   -2.87521   -0.307248 C.3        1 UNL1     0.0210
     59 C         -3.49534   -0.988038   -4.782212 C.3        1 UNL1     0.0372
     60 C         -4.439356   -2.187714   -1.718546 C.2        1 UNL1     -0.0208
     61 C         -4.433493   -3.481404   -2.042699 C.2        1 UNL1     0.0882
     62 H         -1.95234   -4.934349   1.246395 H        1 UNL1     0.0365
     63 H         -2.99546   -6.152855   2.510266 H        1 UNL1     0.0576
     64 H         -1.349402   -6.812806   5.030531 H        1 UNL1     0.0615
     65 H         -4.274718   -7.484303   4.164806 H        1 UNL1     0.0622
     66 H         -4.695784   -0.437918   -2.810608 H        1 UNL1     0.0645
     67 H         -3.654814   0.933632   -1.571481 H        1 UNL1     0.0362
     68 H         -1.950422   0.973574   -2.953301 H        1 UNL1     0.0741
     69 H         0.394789   -0.178134   -2.506154 H        1 UNL1     0.0359
     70 H         0.620247   -2.345453   -2.004749 H        1 UNL1     0.0600
     71 H         1.045258   -2.028608   0.098507 H        1 UNL1     0.0348
     72 H         -0.580105   -3.823444   0.360816 H        1 UNL1     0.0602
     73 H         -5.031983   -1.846893   -0.906215 H        1 UNL1     0.0628
     74 H         -3.809496   -3.918835   -2.822776 H        1 UNL1     0.1022
     75 H         -2.938797   -8.983496   7.733502 H        1 UNL1     0.0279
     76 H         -3.630267   -7.528246   8.331348 H        1 UNL1     0.0279
     77 H         -4.617711   -9.024047   8.080683 H        1 UNL1     0.0279
     78 H         -5.861368   -6.498894   7.334074 H        1 UNL1     0.1553
     79 H         -4.446915   -5.206391   6.829115 H        1 UNL1     0.1484
     80 H         -4.163863   -1.831796   5.105314 H        1 UNL1     0.0317
     81 H         -5.705028   -2.629058   5.38658 H        1 UNL1     0.0317
     82 H         -4.958452   -3.400045   7.654158 H        1 UNL1     0.0428
     83 H         -4.871966   -1.662333   7.468195 H        1 UNL1     0.0428
     84 H         -1.221823   -3.806747   7.04265 H        1 UNL1     0.0428
     85 H         -2.625486   -4.745318   7.414048 H        1 UNL1     0.0428
     86 H         -1.901601   -4.689546   5.027056 H        1 UNL1     0.0317
     87 H         -2.095234   -3.001411   4.904346 H        1 UNL1     0.0317
     88 H         -3.554767   -2.468559   9.388716 H        1 UNL1     0.0429
     89 H         -1.857403   -2.896899   9.161308 H        1 UNL1     0.0429
     90 H         -2.408843   -0.336045   7.853893 H        1 UNL1     0.0308
     91 H         -3.636039   -0.696351   10.600575 H        1 UNL1     0.0233
     92 H         -2.781323   0.826743   10.246822 H        1 UNL1     0.0233
     93 H         -4.164625   0.347899   9.286724 H        1 UNL1     0.0233
     94 H         -0.243543   -0.471668   8.379204 H        1 UNL1     0.0233
     95 H         -0.768979   0.280059   9.89352 H        1 UNL1     0.0233
     96 H         -0.509195   -1.477999   9.817808 H        1 UNL1     0.0233
     97 H         -9.923027   -5.598013   -0.473662 H        1 UNL1     0.0280
     98 H         -9.373496   -7.225292   -0.768902 H        1 UNL1     0.0280
     99 H         -10.566621   -6.913206   0.526778 H        1 UNL1     0.0280
     100 H         -9.512343   -8.071411   3.424603 H        1 UNL1     0.2922
     101 H         -0.428587   -6.096083   0.08724 H        1 UNL1     0.0236
     102 H         0.147562   -6.876823   1.61189 H        1 UNL1     0.0236
     103 H         0.917642   -5.455806   0.976924 H        1 UNL1     0.0236
     104 H         0.86339   -4.16843   2.51242 H        1 UNL1     0.2098
     105 H         -1.463313   -0.511926   0.779382 H        1 UNL1     0.0234
     106 H         0.114412   -0.479592   1.616541 H        1 UNL1     0.0234
     107 H         0.0   0.0   0.0 H        1 UNL1     0.0234
     108 H         -1.230037   -3.704081   -1.254991 H        1 UNL1     0.2098
     109 H         -4.400174   -0.202315   0.291798 H        1 UNL1     0.0234
     110 H         -2.960505   -1.268455   0.350962 H        1 UNL1     0.0234
     111 H         -2.809617   0.423309   0.673471 H        1 UNL1     0.0234
     112 H         2.117457   2.369443   -1.879804 H        1 UNL1     0.0342
     113 H         0.999456   1.513691   -3.000518 H        1 UNL1     0.0342
     114 H         0.721639   3.206436   -2.581707 H        1 UNL1     0.0342
     115 H         0.100465   -1.377495   -4.500557 H        1 UNL1     0.0234
     116 H         -1.659652   -1.274337   -4.39042 H        1 UNL1     0.0234
     117 H         -0.630466   0.15307   -4.629025 H        1 UNL1     0.0234
     118 H         -6.799714   -2.222431   -1.191954 H        1 UNL1     0.0309
     119 H         -7.961873   -2.985727   -0.062872 H        1 UNL1     0.0309
     120 H         -6.464424   -2.276234   0.499642 H        1 UNL1     0.0309
     121 H         -3.214753   0.064808   -4.794072 H        1 UNL1     0.0524
     122 H         -2.969277   -1.481209   -5.616524 H        1 UNL1     0.0524
     123 H         -4.566506   -1.092171   -4.930047 H        1 UNL1     0.0524
@<TRIPOS>BOND
     1     1     2    1
     2     1    42    1
     3     2     3    2
     4     3     4    1
     5     4     5    2
     6     5     7    1
     7     6    75    1
     8     6    76    1
     9     6    77    1
    10     7     9   am
    11     9    10    1
    12    10    11    2
    13    10    43    1
    14    11    14    1
    15    11    15    1
    16    12    13   ar
    17    12    27   ar
    18    12    43    1
    19    13    14    1
    20    13    30   ar
    21    14    17    2
    22    15    16    1
    23    16    17    1
    24    16    18    1
    25    16    22    1
    26    18    19    1
    27    19    20    1
    28    20    21    1
    29    21    22    1
    30    23    24    1
    31    23    88    1
    32    23    89    1
    33    24    25    1
    34    24    26    1
    35    24    90    1
    36    25    91    1
    37    25    92    1
    38    25    93    1
    39    26    94    1
    40    26    95    1
    41    26    96    1
    42    27    28   ar
    43    28    29   ar
    44    29    30   ar
    45    29    31    1
    46    30    33    1
    47    31    32    1
    48    32    33    1
    49    32    35    1
    50    34    97    1
    51    34    98    1
    52    34    99    1
    53    35    61    1
    54    36    37    1
    55    36    60    1
    56    37    38    1
    57    38    39    1
    58    39    40    1
    59    40    41    1
    60    41    42    1
    61    45   100    1
    62    47   101    1
    63    47   102    1
    64    47   103    1
    65    48   104    1
    66    49   105    1
    67    49   106    1
    68    49   107    1
    69    50   108    1
    70    51    59    1
    71    52   109    1
    72    52   110    1
    73    52   111    1
    74    53    54    1
    75    54    55    2
    76    54    56    1
    77    56   112    1
    78    56   113    1
    79    56   114    1
    80    57   115    1
    81    57   116    1
    82    57   117    1
    83    58   118    1
    84    58   119    1
    85    58   120    1
    86    59   121    1
    87    59   122    1
    88    59   123    1
    89    60    61    2
    90     1    47    1
    91     1    62    1
    92     2    63    1
    93     3    64    1
    94     4    65    1
    95     5     6    1
    96     7     8    2
    97     9    78    1
    98    15    79    1
    99    18    80    1
   100    18    81    1
   101    19    82    1
   102    19    83    1
   103    20    23    1
   104    21    84    1
   105    21    85    1
   106    22    86    1
   107    22    87    1
   108    27    45    1
   109    28    34    1
   110    32    58    1
   111    33    46    2
   112    36    51    1
   113    36    66    1
   114    37    52    1
   115    37    67    1
   116    38    53    1
   117    38    68    1
   118    42    48    1
   119    42    72    1
   120    43    44    2
   121    60    73    1
   122    61    74    1
   123    39    69    1
   124    39    57    1
   125    40    70    1
   126    40    50    1
   127    41    71    1
   128    41    49    1
