@<TRIPOS>MOLECULE
*****
 123 128 0 0 0
SMALL
GASTEIGER

@<TRIPOS>ATOM
     1 C         2.72686   -0.48334   -3.301022 C.3        1 UNL1     0.0009
     2 C         3.713307   -1.984621   -3.759403 C.2        1 UNL1     -0.0787
     3 C         4.982578   -2.675876   -3.844042 C.2        1 UNL1     -0.0649
     4 C         5.265254   -4.279468   -4.307662 C.2        1 UNL1     -0.0542
     5 C         6.180451   -5.35955   -4.253647 C.2        1 UNL1     0.0115
     6 C         7.630134   -5.759964   -3.864533 C.3        1 UNL1     -0.0348
     7 C         5.651622   -6.842341   -4.567747 C.2        1 UNL1     0.2441
     8 O         5.844319   -7.405015   -5.636762 O.2        1 UNL1     -0.2702
     9 N         5.181474   -7.549599   -3.447525 N.am        1 UNL1     -0.2772
     10 C         3.845282   -7.292314   -3.243274 C.2        1 UNL1     0.1049
     11 C         3.560166   -6.185183   -2.58207 C.2        1 UNL1     0.0801
     12 C         1.639895   -7.203063   -4.420404 C.ar        1 UNL1     0.0753
     13 C         1.471094   -5.905728   -3.839855 C.ar        1 UNL1     0.0305
     14 C         2.367305   -5.411677   -2.796892 C.2        1 UNL1     0.0924
     15 N         4.36445   -5.362876   -1.886753 N.pl3        1 UNL1     -0.3170
     16 C         3.533197   -4.399051   -1.215698 C.3        1 UNL1     0.1275
     17 N         2.303864   -4.290397   -2.084409 N.2        1 UNL1     -0.2557
     18 C         3.072122   -5.033007   0.093199 C.3        1 UNL1     0.0016
     19 C         4.297696   -5.463346   0.883367 C.3        1 UNL1     0.0026
     20 N         5.128523   -4.293329   1.131989 N.3        1 UNL1     -0.3018
     21 C         5.571006   -3.578828   -0.067206 C.3        1 UNL1     0.0026
     22 C         4.323954   -3.151809   -0.843357 C.3        1 UNL1     0.0016
     23 C         6.158304   -4.533257   2.123266 C.3        1 UNL1     0.0012
     24 C         6.28814   -6.037113   2.41191 C.3        1 UNL1     -0.0339
     25 C         7.631513   -6.592059   1.91047 C.3        1 UNL1     -0.0615
     26 C         6.092556   -6.301592   3.89467 C.3        1 UNL1     -0.0615
     27 C         0.712962   -7.71501   -5.325292 C.ar        1 UNL1     0.1347
     28 C         -0.437902   -7.041687   -5.694343 C.ar        1 UNL1     0.0342
     29 C         -0.558242   -5.746274   -5.147911 C.ar        1 UNL1     0.1435
     30 C         0.380622   -5.20586   -4.268305 C.ar        1 UNL1     0.0774
     31 O         -1.675668   -5.007911   -5.324508 O.3        1 UNL1     -0.4436
     32 C         -1.629241   -4.024284   -4.279905 C.3        1 UNL1     0.3143
     33 C         -0.165586   -3.915537   -3.902941 C.2        1 UNL1     0.2504
     34 C         -1.594602   -7.62515   -6.457046 C.3        1 UNL1     -0.0327
     35 O         -2.005072   -2.769006   -4.859802 O.2        1 UNL1     -0.4528
     36 C         -3.659263   -0.789897   -2.075045 C.3        1 UNL1     0.0854
     37 C         -3.082546   -0.380632   -0.665286 C.3        1 UNL1     0.0236
     38 C         -3.127941   1.19041   -0.346681 C.3        1 UNL1     0.1131
     39 C         -2.544941   2.22135   -1.395273 C.3        1 UNL1     0.0200
     40 C         -1.092303   1.920459   -2.157997 C.3        1 UNL1     0.0661
     41 C         0.355672   1.472054   -1.396479 C.3        1 UNL1     0.0091
     42 C         1.727187   0.403877   -1.982439 C.3        1 UNL1     0.0661
     43 C         2.788074   -8.022142   -3.958826 C.2        1 UNL1     0.2131
     44 O         2.832217   -9.235048   -4.057045 O.2        1 UNL1     -0.2851
     45 O         0.975235   -8.966471   -5.878915 O.3        1 UNL1     -0.5056
     46 O         0.422066   -2.969221   -3.428595 O.2        1 UNL1     -0.2836
     47 C         2.95312   0.648298   -4.339378 C.3        1 UNL1     -0.0566
     48 O         2.791478   1.355542   -1.581524 O.3        1 UNL1     -0.3909
     49 C         0.051144   1.058453   0.026086 C.3        1 UNL1     -0.0577
     50 O         -1.288634   1.1405   -3.320254 O.3        1 UNL1     -0.3910
     51 O         -3.977933   0.274414   -2.942872 O.3        1 UNL1     -0.3753
     52 C         -1.872078   -1.278583   -0.248869 C.3        1 UNL1     -0.0564
     53 O         -2.910334   1.515919   1.102117 O.3        1 UNL1     -0.4608
     54 C         -2.794616   2.777331   1.624973 C.2        1 UNL1     0.3042
     55 O         -2.171635   3.727371   1.152577 O.2        1 UNL1     -0.2512
     56 C         -3.582762   2.97955   2.887766 C.3        1 UNL1     0.0332
     57 C         -3.764191   2.739094   -2.291679 C.3        1 UNL1     -0.0567
     58 C         -2.409477   -4.618747   -3.08434 C.3        1 UNL1     0.0210
     59 C         -4.879133   1.239447   -2.402117 C.3        1 UNL1     0.0372
     60 C         -2.812177   -1.73687   -2.850189 C.2        1 UNL1     -0.0208
     61 C         -2.460843   -1.728116   -4.136747 C.2        1 UNL1     0.0882
     62 H         1.816085   -1.011784   -3.607532 H        1 UNL1     0.0365
     63 H         2.938902   -2.606121   -4.213832 H        1 UNL1     0.0576
     64 H         5.899204   -2.241248   -3.439068 H        1 UNL1     0.0615
     65 H         4.3218   -4.588461   -4.765811 H        1 UNL1     0.0622
     66 H         -4.586996   -1.333191   -1.846596 H        1 UNL1     0.0645
     67 H         -3.825094   -0.771564   0.0519 H        1 UNL1     0.0362
     68 H         -4.217149   1.348691   -0.356494 H        1 UNL1     0.0741
     69 H         -2.358713   3.16115   -0.892777 H        1 UNL1     0.0359
     70 H         -0.864124   2.933823   -2.540211 H        1 UNL1     0.0600
     71 H         0.808966   2.470533   -1.239886 H        1 UNL1     0.0348
     72 H         1.175612   0.710504   -2.883028 H        1 UNL1     0.0602
     73 H         -2.581551   -2.576627   -2.242843 H        1 UNL1     0.0628
     74 H         -2.608261   -0.883388   -4.810499 H        1 UNL1     0.1022
     75 H         8.23181   -4.854495   -3.609297 H        1 UNL1     0.0279
     76 H         7.74129   -6.373883   -2.973569 H        1 UNL1     0.0279
     77 H         8.200691   -6.167616   -4.711874 H        1 UNL1     0.0279
     78 H         5.682736   -7.245024   -2.615631 H        1 UNL1     0.1553
     79 H         5.272794   -5.625211   -1.55056 H        1 UNL1     0.1484
     80 H         2.471324   -4.30461   0.651093 H        1 UNL1     0.0317
     81 H         2.423251   -5.894735   -0.096648 H        1 UNL1     0.0317
     82 H         4.864654   -6.247493   0.360314 H        1 UNL1     0.0428
     83 H         3.946075   -5.914308   1.811832 H        1 UNL1     0.0428
     84 H         6.125618   -2.660424   0.149012 H        1 UNL1     0.0428
     85 H         6.270829   -4.178535   -0.665467 H        1 UNL1     0.0428
     86 H         4.678907   -2.52152   -1.637544 H        1 UNL1     0.0317
     87 H         3.716687   -2.472693   -0.232517 H        1 UNL1     0.0317
     88 H         7.112632   -4.171345   1.718825 H        1 UNL1     0.0429
     89 H         5.964502   -3.96855   3.044309 H        1 UNL1     0.0429
     90 H         5.477547   -6.571867   1.902803 H        1 UNL1     0.0308
     91 H         8.321026   -6.774575   2.740146 H        1 UNL1     0.0233
     92 H         7.482759   -7.521948   1.356587 H        1 UNL1     0.0233
     93 H         8.136972   -5.903746   1.222304 H        1 UNL1     0.0233
     94 H         6.388514   -7.327877   4.137534 H        1 UNL1     0.0233
     95 H         6.718043   -5.622658   4.480996 H        1 UNL1     0.0233
     96 H         5.048722   -6.163821   4.190304 H        1 UNL1     0.0233
     97 H         -2.244136   -6.85575   -6.863692 H        1 UNL1     0.0280
     98 H         -1.264146   -8.224148   -7.315682 H        1 UNL1     0.0280
     99 H         -2.1932   -8.264405   -5.787622 H        1 UNL1     0.0280
     100 H         1.642809   -9.459013   -5.434652 H        1 UNL1     0.2922
     101 H         3.936809   1.092964   -4.190098 H        1 UNL1     0.0236
     102 H         2.161368   1.396701   -4.337121 H        1 UNL1     0.0236
     103 H         2.973621   0.264019   -5.372868 H        1 UNL1     0.0236
     104 H         2.922157   1.980631   -2.321225 H        1 UNL1     0.2098
     105 H         0.814737   1.336967   0.748006 H        1 UNL1     0.0234
     106 H         -0.93434   1.354553   0.385352 H        1 UNL1     0.0234
     107 H         -0.0   0.0   0.0 H        1 UNL1     0.0234
     108 H         -0.466014   1.188788   -3.844403 H        1 UNL1     0.2098
     109 H         -2.028258   -1.761429   0.725902 H        1 UNL1     0.0234
     110 H         -1.621519   -2.037586   -0.997786 H        1 UNL1     0.0234
     111 H         -0.949573   -0.691853   -0.145533 H        1 UNL1     0.0234
     112 H         -4.615233   3.247065   2.643255 H        1 UNL1     0.0342
     113 H         -3.548751   2.105339   3.536181 H        1 UNL1     0.0342
     114 H         -3.138518   3.820027   3.438593 H        1 UNL1     0.0342
     115 H         -3.847446   3.834521   -2.274445 H        1 UNL1     0.0234
     116 H         -3.708755   2.430415   -3.337477 H        1 UNL1     0.0234
     117 H         -4.753447   2.444035   -1.901483 H        1 UNL1     0.0234
     118 H         -2.523697   -5.713788   -3.167082 H        1 UNL1     0.0309
     119 H         -1.96034   -4.377684   -2.115646 H        1 UNL1     0.0309
     120 H         -3.44342   -4.259836   -3.036917 H        1 UNL1     0.0309
     121 H         -4.90518   2.086443   -3.087153 H        1 UNL1     0.0524
     122 H         -5.907246   0.849962   -2.316547 H        1 UNL1     0.0524
     123 H         -4.541146   1.561062   -1.421085 H        1 UNL1     0.0524
@<TRIPOS>BOND
     1     1     2    1
     2     1    42    1
     3     2     3    2
     4     3     4    1
     5     4     5    2
     6     5     7    1
     7     6    75    1
     8     6    76    1
     9     6    77    1
    10     7     9   am
    11     9    10    1
    12    10    11    2
    13    10    43    1
    14    11    14    1
    15    11    15    1
    16    12    13   ar
    17    12    27   ar
    18    12    43    1
    19    13    14    1
    20    13    30   ar
    21    14    17    2
    22    15    16    1
    23    16    17    1
    24    16    18    1
    25    16    22    1
    26    18    19    1
    27    19    20    1
    28    20    21    1
    29    21    22    1
    30    23    24    1
    31    23    88    1
    32    23    89    1
    33    24    25    1
    34    24    26    1
    35    24    90    1
    36    25    91    1
    37    25    92    1
    38    25    93    1
    39    26    94    1
    40    26    95    1
    41    26    96    1
    42    27    28   ar
    43    28    29   ar
    44    29    30   ar
    45    29    31    1
    46    30    33    1
    47    31    32    1
    48    32    33    1
    49    32    35    1
    50    34    97    1
    51    34    98    1
    52    34    99    1
    53    35    61    1
    54    36    37    1
    55    36    60    1
    56    37    38    1
    57    38    39    1
    58    39    40    1
    59    40    41    1
    60    41    42    1
    61    45   100    1
    62    47   101    1
    63    47   102    1
    64    47   103    1
    65    48   104    1
    66    49   105    1
    67    49   106    1
    68    49   107    1
    69    50   108    1
    70    51    59    1
    71    52   109    1
    72    52   110    1
    73    52   111    1
    74    53    54    1
    75    54    55    2
    76    54    56    1
    77    56   112    1
    78    56   113    1
    79    56   114    1
    80    57   115    1
    81    57   116    1
    82    57   117    1
    83    58   118    1
    84    58   119    1
    85    58   120    1
    86    59   121    1
    87    59   122    1
    88    59   123    1
    89    60    61    2
    90     1    47    1
    91     1    62    1
    92     2    63    1
    93     3    64    1
    94     4    65    1
    95     5     6    1
    96     7     8    2
    97     9    78    1
    98    15    79    1
    99    18    80    1
   100    18    81    1
   101    19    82    1
   102    19    83    1
   103    20    23    1
   104    21    84    1
   105    21    85    1
   106    22    86    1
   107    22    87    1
   108    27    45    1
   109    28    34    1
   110    32    58    1
   111    33    46    2
   112    36    51    1
   113    36    66    1
   114    37    52    1
   115    37    67    1
   116    38    53    1
   117    38    68    1
   118    42    48    1
   119    42    72    1
   120    43    44    2
   121    60    73    1
   122    61    74    1
   123    39    69    1
   124    39    57    1
   125    40    70    1
   126    40    50    1
   127    41    71    1
   128    41    49    1
