@<TRIPOS>MOLECULE
*****
 123 128 0 0 0
SMALL
GASTEIGER

@<TRIPOS>ATOM
     1 C         -2.052629   3.468489   1.652753 C.3        1 UNL1     0.0009
     2 C         -1.852167   4.401347   3.24229 C.2        1 UNL1     -0.0787
     3 C         -2.136398   4.553722   4.653687 C.2        1 UNL1     -0.0649
     4 C         -1.489216   5.690313   5.72871 C.2        1 UNL1     -0.0542
     5 C         -1.254078   5.996637   7.091778 C.2        1 UNL1     0.0115
     6 C         -1.575903   5.567639   8.54976 C.3        1 UNL1     -0.0348
     7 C         -0.165352   7.117552   7.459494 C.2        1 UNL1     0.2441
     8 O         -0.467779   8.256294   7.78863 O.2        1 UNL1     -0.2702
     9 N         1.143193   6.633592   7.63167 N.am        1 UNL1     -0.2772
     10 C         1.809998   6.613538   6.428221 C.2        1 UNL1     0.1049
     11 C         1.592255   5.561843   5.65962 C.2        1 UNL1     0.0801
     12 C         2.329591   8.018356   4.424763 C.ar        1 UNL1     0.0753
     13 C         1.88195   6.914055   3.631828 C.ar        1 UNL1     0.0305
     14 C         1.623138   5.602973   4.222703 C.2        1 UNL1     0.0924
     15 N         0.985772   4.396142   5.942194 N.pl3        1 UNL1     -0.3170
     16 C         1.163718   3.523064   4.812449 C.3        1 UNL1     0.1275
     17 N         1.302684   4.454615   3.633202 N.2        1 UNL1     -0.2557
     18 C         2.519168   2.842168   4.976275 C.3        1 UNL1     0.0016
     19 C         2.550551   2.1392   6.324029 C.3        1 UNL1     0.0026
     20 N         1.466967   1.167211   6.369971 N.3        1 UNL1     -0.3018
     21 C         0.127039   1.719518   6.160405 C.3        1 UNL1     0.0026
     22 C         0.116905   2.416922   4.799001 C.3        1 UNL1     0.0016
     23 C         1.586872   0.240953   7.478264 C.3        1 UNL1     0.0012
     24 C         2.181564   0.945969   8.707512 C.3        1 UNL1     -0.0339
     25 C         1.086644   1.350364   9.708347 C.3        1 UNL1     -0.0615
     26 C         3.233349   0.062941   9.356196 C.3        1 UNL1     -0.0615
     27 C         2.689702   9.229186   3.837968 C.ar        1 UNL1     0.1347
     28 C         2.681626   9.441191   2.47084 C.ar        1 UNL1     0.0342
     29 C         2.190864   8.356271   1.713698 C.ar        1 UNL1     0.1435
     30 C         1.792347   7.14979   2.290592 C.ar        1 UNL1     0.0774
     31 O         2.223825   8.367215   0.363216 O.3        1 UNL1     -0.4436
     32 C         2.108785   6.98675   -0.013554 C.3        1 UNL1     0.3143
     33 C         1.4409   6.308633   1.165556 C.2        1 UNL1     0.2504
     34 C         3.288431   10.617131   1.757361 C.3        1 UNL1     -0.0327
     35 O         1.188317   6.919644   -1.109678 O.2        1 UNL1     -0.4528
     36 C         2.268015   3.936793   -3.19413 C.3        1 UNL1     0.0854
     37 C         2.431973   2.42811   -2.764576 C.3        1 UNL1     0.0236
     38 C         1.600382   1.379602   -3.648221 C.3        1 UNL1     0.1131
     39 C         0.057202   1.616849   -3.902348 C.3        1 UNL1     0.0200
     40 C         -0.939439   2.102438   -2.656014 C.3        1 UNL1     0.0661
     41 C         -1.032365   1.385863   -1.121252 C.3        1 UNL1     0.0091
     42 C         -1.391154   2.126686   0.518215 C.3        1 UNL1     0.0661
     43 C         2.483046   7.80276   5.884978 C.2        1 UNL1     0.2131
     44 O         3.198152   8.48651   6.594799 O.2        1 UNL1     -0.2851
     45 O         3.070809   10.268189   4.684531 O.3        1 UNL1     -0.5056
     46 O         0.754668   5.311185   1.171602 O.2        1 UNL1     -0.2836
     47 C         -3.46205   3.721388   1.053123 C.3        1 UNL1     -0.0566
     48 O         -2.378887   1.087967   0.898427 O.3        1 UNL1     -0.3909
     49 C         0.15427   0.465872   -0.939566 C.3        1 UNL1     -0.0577
     50 O         -0.937825   3.510444   -2.532563 O.3        1 UNL1     -0.3910
     51 O         1.288936   4.195139   -4.174993 O.3        1 UNL1     -0.3753
     52 C         2.579136   2.276991   -1.215235 C.3        1 UNL1     -0.0564
     53 O         2.03489   -0.044196   -3.457615 O.3        1 UNL1     -0.4608
     54 C         2.192047   -0.672682   -2.25004 C.2        1 UNL1     0.3042
     55 O         2.622561   -1.807655   -2.049213 O.2        1 UNL1     -0.2512
     56 C         1.834593   0.189013   -1.072576 C.3        1 UNL1     0.0332
     57 C         -0.090727   2.363514   -5.30904 C.3        1 UNL1     -0.0567
     58 C         3.552211   6.447989   -0.146923 C.3        1 UNL1     0.0210
     59 C         1.623393   5.230993   -5.097496 C.3        1 UNL1     0.0372
     60 C         2.015498   4.885295   -2.075318 C.2        1 UNL1     -0.0208
     61 C         1.139251   5.885314   -1.970921 C.2        1 UNL1     0.0882
     62 H         -1.374534   4.182749   1.170332 H        1 UNL1     0.0365
     63 H         -1.265673   5.257783   2.903156 H        1 UNL1     0.0576
     64 H         -2.704494   3.802951   5.207506 H        1 UNL1     0.0615
     65 H         -1.016542   6.428025   5.074613 H        1 UNL1     0.0622
     66 H         3.247541   4.21376   -3.608697 H        1 UNL1     0.0645
     67 H         3.46953   2.179869   -3.048147 H        1 UNL1     0.0362
     68 H         2.084373   1.536917   -4.624195 H        1 UNL1     0.0741
     69 H         -0.391588   0.683409   -4.214893 H        1 UNL1     0.0359
     70 H         -1.926252   1.864594   -3.097253 H        1 UNL1     0.0600
     71 H         -1.847351   0.656671   -1.297417 H        1 UNL1     0.0348
     72 H         -1.766747   2.842911   -0.226948 H        1 UNL1     0.0602
     73 H         2.758457   4.750678   -1.328901 H        1 UNL1     0.0628
     74 H         0.312726   6.055602   -2.661642 H        1 UNL1     0.1022
     75 H         -0.950647   4.691679   8.847726 H        1 UNL1     0.0279
     76 H         -1.351084   6.291966   9.329424 H        1 UNL1     0.0279
     77 H         -2.590365   5.156738   8.658053 H        1 UNL1     0.0279
     78 H         1.111281   5.677762   7.980164 H        1 UNL1     0.1553
     79 H         0.840375   4.055679   6.874866 H        1 UNL1     0.1484
     80 H         2.665544   2.134058   4.151702 H        1 UNL1     0.0317
     81 H         3.333781   3.571454   4.91149 H        1 UNL1     0.0317
     82 H         2.477336   2.853289   7.157473 H        1 UNL1     0.0428
     83 H         3.52622   1.662004   6.421005 H        1 UNL1     0.0428
     84 H         -0.659343   0.959393   6.120099 H        1 UNL1     0.0428
     85 H         -0.178438   2.375861   6.986974 H        1 UNL1     0.0428
     86 H         -0.906608   2.690592   4.621479 H        1 UNL1     0.0317
     87 H         0.3269   1.690612   4.004349 H        1 UNL1     0.0317
     88 H         0.581288   -0.118004   7.733694 H        1 UNL1     0.0429
     89 H         2.181394   -0.638805   7.200158 H        1 UNL1     0.0429
     90 H         2.70899   1.85064   8.382543 H        1 UNL1     0.0308
     91 H         0.710716   0.482668   10.258695 H        1 UNL1     0.0233
     92 H         1.466121   2.088682   10.418623 H        1 UNL1     0.0233
     93 H         0.222689   1.814341   9.217283 H        1 UNL1     0.0233
     94 H         3.026021   -0.991068   9.141915 H        1 UNL1     0.0233
     95 H         4.221541   0.300931   8.952714 H        1 UNL1     0.0233
     96 H         3.253344   0.197533   10.441302 H        1 UNL1     0.0233
     97 H         4.373831   10.58642   1.771324 H        1 UNL1     0.0280
     98 H         3.002346   10.651062   0.697994 H        1 UNL1     0.0280
     99 H         2.962897   11.551597   2.243054 H        1 UNL1     0.0280
     100 H         2.547274   11.046568   4.609302 H        1 UNL1     0.2922
     101 H         -4.147918   4.027848   1.842632 H        1 UNL1     0.0236
     102 H         -3.844605   2.873999   0.485174 H        1 UNL1     0.0236
     103 H         -3.463637   4.56191   0.339182 H        1 UNL1     0.0236
     104 H         -2.129359   0.752969   1.781876 H        1 UNL1     0.2098
     105 H         0.234778   -0.316765   -1.689772 H        1 UNL1     0.0234
     106 H         1.110777   0.974566   -0.820182 H        1 UNL1     0.0234
     107 H         0.0   0.0   0.0 H        1 UNL1     0.0234
     108 H         -0.253959   3.74325   -1.875374 H        1 UNL1     0.2098
     109 H         3.264046   1.46287   -0.939886 H        1 UNL1     0.0234
     110 H         2.892439   3.202558   -0.720351 H        1 UNL1     0.0234
     111 H         1.620084   2.032265   -0.739553 H        1 UNL1     0.0234
     112 H         1.358395   -0.418985   -0.297387 H        1 UNL1     0.0342
     113 H         2.698734   0.720298   -0.676546 H        1 UNL1     0.0342
     114 H         1.105884   0.940615   -1.406106 H        1 UNL1     0.0342
     115 H         -0.199556   3.449813   -5.185353 H        1 UNL1     0.0234
     116 H         0.74367   2.192777   -5.99218 H        1 UNL1     0.0234
     117 H         -1.024192   2.115244   -5.842844 H        1 UNL1     0.0234
     118 H         4.227097   7.183025   -0.619426 H        1 UNL1     0.0309
     119 H         3.981863   6.129472   0.808141 H        1 UNL1     0.0309
     120 H         3.617302   5.580685   -0.812996 H        1 UNL1     0.0309
     121 H         1.657243   6.168251   -4.542736 H        1 UNL1     0.0524
     122 H         2.61545   5.079814   -5.554666 H        1 UNL1     0.0524
     123 H         0.877299   5.288278   -5.884997 H        1 UNL1     0.0524
@<TRIPOS>BOND
     1     1     2    1
     2     1    42    1
     3     2     3    2
     4     3     4    1
     5     4     5    2
     6     5     7    1
     7     6    75    1
     8     6    76    1
     9     6    77    1
    10     7     9   am
    11     9    10    1
    12    10    11    2
    13    10    43    1
    14    11    14    1
    15    11    15    1
    16    12    13   ar
    17    12    27   ar
    18    12    43    1
    19    13    14    1
    20    13    30   ar
    21    14    17    2
    22    15    16    1
    23    16    17    1
    24    16    18    1
    25    16    22    1
    26    18    19    1
    27    19    20    1
    28    20    21    1
    29    21    22    1
    30    23    24    1
    31    23    88    1
    32    23    89    1
    33    24    25    1
    34    24    26    1
    35    24    90    1
    36    25    91    1
    37    25    92    1
    38    25    93    1
    39    26    94    1
    40    26    95    1
    41    26    96    1
    42    27    28   ar
    43    28    29   ar
    44    29    30   ar
    45    29    31    1
    46    30    33    1
    47    31    32    1
    48    32    33    1
    49    32    35    1
    50    34    97    1
    51    34    98    1
    52    34    99    1
    53    35    61    1
    54    36    37    1
    55    36    60    1
    56    37    38    1
    57    38    39    1
    58    39    40    1
    59    40    41    1
    60    41    42    1
    61    45   100    1
    62    47   101    1
    63    47   102    1
    64    47   103    1
    65    48   104    1
    66    49   105    1
    67    49   106    1
    68    49   107    1
    69    50   108    1
    70    51    59    1
    71    52   109    1
    72    52   110    1
    73    52   111    1
    74    53    54    1
    75    54    55    2
    76    54    56    1
    77    56   112    1
    78    56   113    1
    79    56   114    1
    80    57   115    1
    81    57   116    1
    82    57   117    1
    83    58   118    1
    84    58   119    1
    85    58   120    1
    86    59   121    1
    87    59   122    1
    88    59   123    1
    89    60    61    2
    90     1    47    1
    91     1    62    1
    92     2    63    1
    93     3    64    1
    94     4    65    1
    95     5     6    1
    96     7     8    2
    97     9    78    1
    98    15    79    1
    99    18    80    1
   100    18    81    1
   101    19    82    1
   102    19    83    1
   103    20    23    1
   104    21    84    1
   105    21    85    1
   106    22    86    1
   107    22    87    1
   108    27    45    1
   109    28    34    1
   110    32    58    1
   111    33    46    2
   112    36    51    1
   113    36    66    1
   114    37    52    1
   115    37    67    1
   116    38    53    1
   117    38    68    1
   118    42    48    1
   119    42    72    1
   120    43    44    2
   121    60    73    1
   122    61    74    1
   123    39    69    1
   124    39    57    1
   125    40    70    1
   126    40    50    1
   127    41    71    1
   128    41    49    1
