@<TRIPOS>MOLECULE
*****
 123 128 0 0 0
SMALL
GASTEIGER

@<TRIPOS>ATOM
     1 C         -3.063325   -4.183868   -1.766256 C.3        1 UNL1     0.0009
     2 C         -3.787506   -5.040558   -3.242291 C.2        1 UNL1     -0.0787
     3 C         -4.916521   -5.31758   -4.105212 C.2        1 UNL1     -0.0649
     4 C         -4.930913   -6.203713   -5.547751 C.2        1 UNL1     -0.0542
     5 C         -5.636583   -6.451957   -6.750865 C.2        1 UNL1     0.0115
     6 C         -6.973118   -6.194652   -7.499725 C.3        1 UNL1     -0.0348
     7 C         -4.867852   -7.157084   -7.971044 C.2        1 UNL1     0.2441
     8 O         -5.005848   -8.340229   -8.249703 O.2        1 UNL1     -0.2702
     9 N         -4.229487   -6.270744   -8.855941 N.am        1 UNL1     -0.2772
     10 C         -2.952282   -5.997077   -8.423302 C.2        1 UNL1     0.1049
     11 C         -2.838473   -5.05673   -7.502967 C.2        1 UNL1     0.0801
     12 C         -0.853274   -7.093599   -7.617609 C.ar        1 UNL1     0.0753
     13 C         -0.891209   -6.179379   -6.516985 C.ar        1 UNL1     0.0305
     14 C         -1.812721   -5.045623   -6.495453 C.2        1 UNL1     0.0924
     15 N         -3.743579   -4.167063   -7.06047 N.pl3        1 UNL1     -0.3170
     16 C         -3.066997   -3.253667   -6.178314 C.3        1 UNL1     0.1275
     17 N         -1.917031   -4.053214   -5.616152 N.2        1 UNL1     -0.2557
     18 C         -2.442017   -2.165845   -7.046499 C.3        1 UNL1     0.0016
     19 C         -3.534772   -1.529841   -7.890876 C.3        1 UNL1     0.0026
     20 N         -4.547873   -0.974813   -7.003972 N.3        1 UNL1     -0.3018
     21 C         -5.163899   -1.934987   -6.085851 C.3        1 UNL1     0.0026
     22 C         -4.048806   -2.558308   -5.244464 C.3        1 UNL1     0.0016
     23 C         -5.472824   -0.09228   -7.686793 C.3        1 UNL1     0.0012
     24 C         -6.095654   0.905086   -6.697298 C.3        1 UNL1     -0.0339
     25 C         -5.266922   1.008349   -5.40633 C.3        1 UNL1     -0.0615
     26 C         -6.266489   2.260096   -7.361786 C.3        1 UNL1     -0.0615
     27 C         0.107864   -8.099292   -7.687703 C.ar        1 UNL1     0.1347
     28 C         1.103122   -8.264151   -6.740954 C.ar        1 UNL1     0.0342
     29 C         1.016343   -7.383519   -5.641809 C.ar        1 UNL1     0.1435
     30 C         0.037282   -6.394415   -5.540164 C.ar        1 UNL1     0.0774
     31 O         1.9759   -7.345645   -4.691639 O.3        1 UNL1     -0.4436
     32 C         1.803029   -6.07202   -4.052212 C.3        1 UNL1     0.3143
     33 C         0.361881   -5.687158   -4.319021 C.2        1 UNL1     0.2504
     34 C         2.309265   -9.151482   -6.874979 C.3        1 UNL1     -0.0327
     35 O         1.923572   -6.284398   -2.640257 O.2        1 UNL1     -0.4528
     36 C         3.324717   -3.055993   -1.218186 C.3        1 UNL1     0.0854
     37 C         2.748938   -1.591011   -1.31733 C.3        1 UNL1     0.0236
     38 C         2.529273   -0.854475   0.090152 C.3        1 UNL1     0.1131
     39 C         1.725781   -1.583929   1.24105 C.3        1 UNL1     0.0200
     40 C         0.316562   -2.407275   0.896609 C.3        1 UNL1     0.0661
     41 C         -0.992928   -1.804906   0.002183 C.3        1 UNL1     0.0091
     42 C         -2.178276   -2.667765   -1.100463 C.3        1 UNL1     0.0661
     43 C         -1.815848   -6.879612   -8.726626 C.2        1 UNL1     0.2131
     44 O         -1.648514   -7.306179   -9.854801 O.2        1 UNL1     -0.2851
     45 O         0.046986   -8.975538   -8.769333 O.3        1 UNL1     -0.5056
     46 O         -0.362254   -4.974991   -3.660007 O.2        1 UNL1     -0.2836
     47 C         -3.533508   -4.874105   -0.457637 C.3        1 UNL1     -0.0566
     48 O         -3.375266   -2.027193   -0.503806 O.3        1 UNL1     -0.3909
     49 C         -0.555797   -0.548261   -0.717021 C.3        1 UNL1     -0.0577
     50 O         0.595347   -3.737572   0.508906 O.3        1 UNL1     -0.3910
     51 O         3.409914   -3.597852   0.080491 O.3        1 UNL1     -0.3753
     52 C         1.737077   -1.44236   -2.500119 C.3        1 UNL1     -0.0564
     53 O         2.323161   0.626971   -0.032984 O.3        1 UNL1     -0.4608
     54 C         2.772811   1.409298   -1.064347 C.2        1 UNL1     0.3042
     55 O         2.223075   2.399366   -1.54538 O.2        1 UNL1     -0.2512
     56 C         4.118332   0.996717   -1.589763 C.3        1 UNL1     0.0332
     57 C         2.792006   -2.298232   2.195571 C.3        1 UNL1     -0.0567
     58 C         2.72964   -5.08077   -4.794064 C.3        1 UNL1     0.0210
     59 C         4.738569   -3.807059   0.556698 C.3        1 UNL1     0.0372
     60 C         2.624869   -4.064974   -2.059216 C.2        1 UNL1     -0.0208
     61 C         2.2197   -5.301816   -1.768002 C.2        1 UNL1     0.0882
     62 H         -2.088067   -4.618622   -2.016402 H        1 UNL1     0.0365
     63 H         -2.936498   -5.643741   -3.565441 H        1 UNL1     0.0576
     64 H         -5.876431   -4.81382   -3.971399 H        1 UNL1     0.0615
     65 H         -3.969322   -6.724104   -5.543534 H        1 UNL1     0.0622
     66 H         4.343489   -2.980186   -1.62365 H        1 UNL1     0.0645
     67 H         3.580743   -1.004381   -1.744561 H        1 UNL1     0.0362
     68 H         3.571546   -0.815048   0.44177 H        1 UNL1     0.0741
     69 H         1.398715   -0.844421   1.959773 H        1 UNL1     0.0359
     70 H         -0.104833   -2.498789   1.915977 H        1 UNL1     0.0600
     71 H         -1.608609   -1.383404   0.820859 H        1 UNL1     0.0348
     72 H         -1.731177   -3.447262   -0.466585 H        1 UNL1     0.0602
     73 H         2.574604   -3.711761   -3.059197 H        1 UNL1     0.0628
     74 H         2.184277   -5.717964   -0.760627 H        1 UNL1     0.1022
     75 H         -7.816944   -6.100088   -6.774432 H        1 UNL1     0.0279
     76 H         -7.042934   -5.266575   -8.062634 H        1 UNL1     0.0279
     77 H         -7.297921   -7.057934   -8.098848 H        1 UNL1     0.0279
     78 H         -4.738663   -5.389828   -8.884278 H        1 UNL1     0.1553
     79 H         -4.574815   -3.920117   -7.565443 H        1 UNL1     0.1484
     80 H         -1.955349   -1.426882   -6.398537 H        1 UNL1     0.0317
     81 H         -1.659829   -2.580917   -7.69113 H        1 UNL1     0.0317
     82 H         -3.976705   -2.250374   -8.594751 H        1 UNL1     0.0428
     83 H         -3.067076   -0.758417   -8.503425 H        1 UNL1     0.0428
     84 H         -5.862282   -1.478562   -5.377509 H        1 UNL1     0.0428
     85 H         -5.772576   -2.678069   -6.619386 H        1 UNL1     0.0428
     86 H         -4.545515   -3.15153   -4.499243 H        1 UNL1     0.0317
     87 H         -3.54464   -1.781871   -4.656196 H        1 UNL1     0.0317
     88 H         -4.911716   0.470832   -8.443997 H        1 UNL1     0.0429
     89 H         -6.247961   -0.660217   -8.217249 H        1 UNL1     0.0429
     90 H         -7.106567   0.569373   -6.437369 H        1 UNL1     0.0308
     91 H         -5.848515   0.694887   -4.534209 H        1 UNL1     0.0233
     92 H         -4.365637   0.394775   -5.47575 H        1 UNL1     0.0233
     93 H         -4.925617   2.031954   -5.209913 H        1 UNL1     0.0233
     94 H         -7.330541   2.499541   -7.463254 H        1 UNL1     0.0233
     95 H         -5.802862   3.038003   -6.748702 H        1 UNL1     0.0233
     96 H         -5.812119   2.276918   -8.356388 H        1 UNL1     0.0233
     97 H         2.929367   -8.871096   -7.721198 H        1 UNL1     0.0280
     98 H         2.961794   -9.098752   -5.993683 H        1 UNL1     0.0280
     99 H         1.98541   -10.195819   -7.014883 H        1 UNL1     0.0280
     100 H         -0.697057   -8.851754   -9.332094 H        1 UNL1     0.2922
     101 H         -3.705568   -5.93424   -0.642472 H        1 UNL1     0.0236
     102 H         -4.399772   -4.391825   -0.006001 H        1 UNL1     0.0236
     103 H         -2.757656   -4.848911   0.325697 H        1 UNL1     0.0236
     104 H         -3.31048   -1.066719   -0.67192 H        1 UNL1     0.2098
     105 H         0.088672   -0.722904   -1.574908 H        1 UNL1     0.0234
     106 H         -1.367006   0.128355   -0.985455 H        1 UNL1     0.0234
     107 H         0.0   0.0   0.0 H        1 UNL1     0.0234
     108 H         0.016383   -4.320879   1.036468 H        1 UNL1     0.2098
     109 H         1.767323   -2.302104   -3.183959 H        1 UNL1     0.0234
     110 H         0.707117   -1.275215   -2.166971 H        1 UNL1     0.0234
     111 H         1.963028   -0.563053   -3.117947 H        1 UNL1     0.0234
     112 H         4.035644   0.03995   -2.114268 H        1 UNL1     0.0342
     113 H         4.557995   1.757916   -2.232504 H        1 UNL1     0.0342
     114 H         4.792044   0.854307   -0.73361 H        1 UNL1     0.0342
     115 H         2.488001   -2.256683   3.250579 H        1 UNL1     0.0234
     116 H         2.977761   -3.345341   1.948372 H        1 UNL1     0.0234
     117 H         3.765335   -1.779464   2.233685 H        1 UNL1     0.0234
     118 H         3.796858   -5.285162   -4.598423 H        1 UNL1     0.0309
     119 H         2.560931   -5.062106   -5.875448 H        1 UNL1     0.0309
     120 H         2.60287   -4.048621   -4.449528 H        1 UNL1     0.0309
     121 H         4.860782   -3.215345   1.463503 H        1 UNL1     0.0524
     122 H         4.927478   -4.861083   0.820109 H        1 UNL1     0.0524
     123 H         5.460048   -3.496398   -0.193669 H        1 UNL1     0.0524
@<TRIPOS>BOND
     1     1     2    1
     2     1    42    1
     3     2     3    2
     4     3     4    1
     5     4     5    2
     6     5     7    1
     7     6    75    1
     8     6    76    1
     9     6    77    1
    10     7     9   am
    11     9    10    1
    12    10    11    2
    13    10    43    1
    14    11    14    1
    15    11    15    1
    16    12    13   ar
    17    12    27   ar
    18    12    43    1
    19    13    14    1
    20    13    30   ar
    21    14    17    2
    22    15    16    1
    23    16    17    1
    24    16    18    1
    25    16    22    1
    26    18    19    1
    27    19    20    1
    28    20    21    1
    29    21    22    1
    30    23    24    1
    31    23    88    1
    32    23    89    1
    33    24    25    1
    34    24    26    1
    35    24    90    1
    36    25    91    1
    37    25    92    1
    38    25    93    1
    39    26    94    1
    40    26    95    1
    41    26    96    1
    42    27    28   ar
    43    28    29   ar
    44    29    30   ar
    45    29    31    1
    46    30    33    1
    47    31    32    1
    48    32    33    1
    49    32    35    1
    50    34    97    1
    51    34    98    1
    52    34    99    1
    53    35    61    1
    54    36    37    1
    55    36    60    1
    56    37    38    1
    57    38    39    1
    58    39    40    1
    59    40    41    1
    60    41    42    1
    61    45   100    1
    62    47   101    1
    63    47   102    1
    64    47   103    1
    65    48   104    1
    66    49   105    1
    67    49   106    1
    68    49   107    1
    69    50   108    1
    70    51    59    1
    71    52   109    1
    72    52   110    1
    73    52   111    1
    74    53    54    1
    75    54    55    2
    76    54    56    1
    77    56   112    1
    78    56   113    1
    79    56   114    1
    80    57   115    1
    81    57   116    1
    82    57   117    1
    83    58   118    1
    84    58   119    1
    85    58   120    1
    86    59   121    1
    87    59   122    1
    88    59   123    1
    89    60    61    2
    90     1    47    1
    91     1    62    1
    92     2    63    1
    93     3    64    1
    94     4    65    1
    95     5     6    1
    96     7     8    2
    97     9    78    1
    98    15    79    1
    99    18    80    1
   100    18    81    1
   101    19    82    1
   102    19    83    1
   103    20    23    1
   104    21    84    1
   105    21    85    1
   106    22    86    1
   107    22    87    1
   108    27    45    1
   109    28    34    1
   110    32    58    1
   111    33    46    2
   112    36    51    1
   113    36    66    1
   114    37    52    1
   115    37    67    1
   116    38    53    1
   117    38    68    1
   118    42    48    1
   119    42    72    1
   120    43    44    2
   121    60    73    1
   122    61    74    1
   123    39    69    1
   124    39    57    1
   125    40    70    1
   126    40    50    1
   127    41    71    1
   128    41    49    1
