@<TRIPOS>MOLECULE
*****
 123 128 0 0 0
SMALL
GASTEIGER

@<TRIPOS>ATOM
     1 C         2.401577   -2.815142   -4.039706 C.3        1 UNL1     0.0009
     2 C         2.648457   -2.961648   -5.871269 C.2        1 UNL1     -0.0787
     3 C         2.339377   -3.600372   -7.133231 C.2        1 UNL1     -0.0649
     4 C         2.869474   -3.160114   -8.679687 C.2        1 UNL1     -0.0542
     5 C         2.617783   -3.27329   -10.069263 C.2        1 UNL1     0.0115
     6 C         1.768016   -4.017278   -11.135893 C.3        1 UNL1     -0.0348
     7 C         3.300329   -2.220525   -11.070666 C.2        1 UNL1     0.2441
     8 O         4.282257   -2.488135   -11.749435 O.2        1 UNL1     -0.2702
     9 N         2.543267   -1.060806   -11.311627 N.am        1 UNL1     -0.2772
     10 C         2.825052   -0.098911   -10.36893 C.2        1 UNL1     0.1049
     11 C         2.180121   -0.202337   -9.221067 C.2        1 UNL1     0.0801
     12 C         4.722933   1.077002   -9.240831 C.ar        1 UNL1     0.0753
     13 C         4.083109   0.754812   -8.001707 C.ar        1 UNL1     0.0305
     14 C         2.724207   0.21947   -7.958757 C.2        1 UNL1     0.0924
     15 N         1.131355   -0.973235   -8.885905 N.pl3        1 UNL1     -0.3170
     16 C         0.701868   -0.582663   -7.569376 C.3        1 UNL1     0.1275
     17 N         1.94694   -0.040149   -6.911198 N.2        1 UNL1     -0.2557
     18 C         -0.241288   0.605044   -7.735243 C.3        1 UNL1     0.0016
     19 C         -1.370521   0.202456   -8.670307 C.3        1 UNL1     0.0026
     20 N         -2.065481   -0.942627   -8.098604 N.3        1 UNL1     -0.3018
     21 C         -1.226541   -2.115642   -7.844471 C.3        1 UNL1     0.0026
     22 C         -0.10164   -1.689555   -6.899515 C.3        1 UNL1     0.0016
     23 C         -3.330526   -1.217491   -8.750335 C.3        1 UNL1     0.0012
     24 C         -4.48332   -0.532901   -7.99923 C.3        1 UNL1     -0.0339
     25 C         -5.231109   0.461463   -8.902617 C.3        1 UNL1     -0.0615
     26 C         -5.421739   -1.578019   -7.421406 C.3        1 UNL1     -0.0615
     27 C         5.969143   1.698502   -9.269429 C.ar        1 UNL1     0.1347
     28 C         6.652054   2.080792   -8.12858 C.ar        1 UNL1     0.0342
     29 C         6.025527   1.709517   -6.919951 C.ar        1 UNL1     0.1435
     30 C         4.794258   1.054329   -6.876064 C.ar        1 UNL1     0.0774
     31 O         6.510794   2.10702   -5.723493 O.3        1 UNL1     -0.4436
     32 C         5.405752   1.964061   -4.81833 C.3        1 UNL1     0.3143
     33 C         4.494757   0.939654   -5.464003 C.2        1 UNL1     0.2504
     34 C         7.863797   2.969416   -8.082477 C.3        1 UNL1     -0.0327
     35 O         5.913555   1.37198   -3.61632 O.2        1 UNL1     -0.4528
     36 C         3.721736   2.678598   -0.806201 C.3        1 UNL1     0.0854
     37 C         2.15792   2.572536   -0.630836 C.3        1 UNL1     0.0236
     38 C         1.675773   1.912519   0.748894 C.3        1 UNL1     0.1131
     39 C         2.282003   0.526145   1.210114 C.3        1 UNL1     0.0200
     40 C         2.474261   -0.717896   0.115657 C.3        1 UNL1     0.0661
     41 C         1.289961   -1.291406   -0.954918 C.3        1 UNL1     0.0091
     42 C         1.451793   -2.005807   -2.636835 C.3        1 UNL1     0.0661
     43 C         3.975395   0.808465   -10.494359 C.2        1 UNL1     0.2131
     44 O         4.208712   1.368314   -11.550233 O.2        1 UNL1     -0.2851
     45 O         6.543041   1.936107   -10.516675 O.3        1 UNL1     -0.5056
     46 O         3.71383   0.183478   -4.930896 O.2        1 UNL1     -0.2836
     47 C         3.119439   -3.978522   -3.304041 C.3        1 UNL1     -0.0566
     48 O         0.558072   -3.155894   -2.358126 O.3        1 UNL1     -0.3909
     49 C         0.154595   -0.293533   -1.006756 C.3        1 UNL1     -0.0577
     50 O         3.716779   -0.61246   -0.549741 O.3        1 UNL1     -0.3910
     51 O         4.497227   2.030957   0.17696 O.3        1 UNL1     -0.3753
     52 C         1.438743   2.280178   -1.988135 C.3        1 UNL1     -0.0564
     53 O         0.222381   2.138439   1.047116 O.3        1 UNL1     -0.4608
     54 C         -0.619203   1.230528   1.634794 C.2        1 UNL1     0.3042
     55 O         -1.468514   0.532699   1.082034 O.2        1 UNL1     -0.2512
     56 C         -0.39618   1.072194   3.111921 C.3        1 UNL1     0.0332
     57 C         3.494757   0.837281   2.205401 C.3        1 UNL1     -0.0567
     58 C         4.681463   3.330186   -4.793066 C.3        1 UNL1     0.0210
     59 C         5.138895   2.903973   1.105384 C.3        1 UNL1     0.0372
     60 C         4.238493   2.226901   -2.126842 C.2        1 UNL1     -0.0208
     61 C         5.284879   1.456846   -2.428233 C.2        1 UNL1     0.0882
     62 H         3.095156   -1.965659   -4.0335 H        1 UNL1     0.0365
     63 H         3.438609   -2.224761   -6.02978 H        1 UNL1     0.0576
     64 H         1.565668   -4.36734   -7.212245 H        1 UNL1     0.0615
     65 H         3.685485   -2.458729   -8.485604 H        1 UNL1     0.0622
     66 H         3.933088   3.755853   -0.75237 H        1 UNL1     0.0645
     67 H         1.8313   3.618791   -0.499575 H        1 UNL1     0.0362
     68 H         2.073931   2.655134   1.457072 H        1 UNL1     0.0741
     69 H         1.627232   0.08972   1.952553 H        1 UNL1     0.0359
     70 H         2.605296   -1.567102   0.813324 H        1 UNL1     0.0600
     71 H         0.844122   -2.095535   -0.337212 H        1 UNL1     0.0348
     72 H         2.444869   -2.094438   -2.172874 H        1 UNL1     0.0602
     73 H         3.705413   2.723772   -2.898978 H        1 UNL1     0.0628
     74 H         5.846876   0.86836   -1.70223 H        1 UNL1     0.1022
     75 H         2.082808   -5.085978   -11.2122 H        1 UNL1     0.0279
     76 H         0.70227   -4.10075   -10.935178 H        1 UNL1     0.0279
     77 H         1.9616   -3.660727   -12.158193 H        1 UNL1     0.0279
     78 H         1.551567   -1.278696   -11.239994 H        1 UNL1     0.1553
     79 H         0.5157   -1.397676   -9.555047 H        1 UNL1     0.1484
     80 H         -0.622727   0.899008   -6.749923 H        1 UNL1     0.0317
     81 H         0.290645   1.473923   -8.137421 H        1 UNL1     0.0317
     82 H         -1.000945   -0.023243   -9.681438 H        1 UNL1     0.0428
     83 H         -2.030136   1.0643   -8.776056 H        1 UNL1     0.0428
     84 H         -1.754645   -2.932092   -7.342149 H        1 UNL1     0.0428
     85 H         -0.862324   -2.567588   -8.777427 H        1 UNL1     0.0428
     86 H         0.40995   -2.595305   -6.631407 H        1 UNL1     0.0317
     87 H         -0.522701   -1.34451   -5.947282 H        1 UNL1     0.0317
     88 H         -3.285845   -0.809579   -9.768621 H        1 UNL1     0.0429
     89 H         -3.504673   -2.297177   -8.843743 H        1 UNL1     0.0429
     90 H         -4.077574   0.013385   -7.139489 H        1 UNL1     0.0308
     91 H         -5.445629   0.024792   -9.882618 H        1 UNL1     0.0233
     92 H         -6.168116   0.77664   -8.437546 H        1 UNL1     0.0233
     93 H         -4.655307   1.377554   -9.081685 H        1 UNL1     0.0233
     94 H         -6.073551   -1.975827   -8.206724 H        1 UNL1     0.0233
     95 H         -4.845104   -2.410312   -7.008196 H        1 UNL1     0.0233
     96 H         -6.049848   -1.157106   -6.631292 H        1 UNL1     0.0233
     97 H         7.695999   3.856223   -7.478616 H        1 UNL1     0.0280
     98 H         8.73133   2.463537   -7.638936 H        1 UNL1     0.0280
     99 H         8.124535   3.291213   -9.104024 H        1 UNL1     0.0280
     100 H         6.54727   1.192731   -11.093733 H        1 UNL1     0.2922
     101 H         4.03306   -3.610477   -2.837676 H        1 UNL1     0.0236
     102 H         3.30546   -4.840401   -3.943997 H        1 UNL1     0.0236
     103 H         2.518159   -4.373651   -2.468261 H        1 UNL1     0.0236
     104 H         0.69062   -3.8118   -3.070298 H        1 UNL1     0.2098
     105 H         0.369446   0.601576   -1.585057 H        1 UNL1     0.0234
     106 H         -0.806954   -0.712757   -1.30273 H        1 UNL1     0.0234
     107 H         -0.0   0.0   0.0 H        1 UNL1     0.0234
     108 H         3.687159   -1.216066   -1.316911 H        1 UNL1     0.2098
     109 H         1.610629   3.073228   -2.729242 H        1 UNL1     0.0234
     110 H         1.710665   1.310652   -2.419205 H        1 UNL1     0.0234
     111 H         0.34925   2.220245   -1.864198 H        1 UNL1     0.0234
     112 H         -1.08305   0.321053   3.513595 H        1 UNL1     0.0342
     113 H         0.637388   0.821114   3.345458 H        1 UNL1     0.0342
     114 H         -0.623825   2.030884   3.597983 H        1 UNL1     0.0342
     115 H         3.83511   -0.066422   2.72949 H        1 UNL1     0.0234
     116 H         4.365136   1.282303   1.719145 H        1 UNL1     0.0234
     117 H         3.212198   1.482602   3.054908 H        1 UNL1     0.0234
     118 H         4.809406   3.849481   -3.827163 H        1 UNL1     0.0309
     119 H         4.994258   3.997332   -5.602558 H        1 UNL1     0.0309
     120 H         3.594286   3.231322   -4.8846 H        1 UNL1     0.0309
     121 H         6.099353   3.191106   0.678262 H        1 UNL1     0.0524
     122 H         4.562554   3.828207   1.277602 H        1 UNL1     0.0524
     123 H         5.287231   2.398743   2.055559 H        1 UNL1     0.0524
@<TRIPOS>BOND
     1     1     2    1
     2     1    42    1
     3     2     3    2
     4     3     4    1
     5     4     5    2
     6     5     7    1
     7     6    75    1
     8     6    76    1
     9     6    77    1
    10     7     9   am
    11     9    10    1
    12    10    11    2
    13    10    43    1
    14    11    14    1
    15    11    15    1
    16    12    13   ar
    17    12    27   ar
    18    12    43    1
    19    13    14    1
    20    13    30   ar
    21    14    17    2
    22    15    16    1
    23    16    17    1
    24    16    18    1
    25    16    22    1
    26    18    19    1
    27    19    20    1
    28    20    21    1
    29    21    22    1
    30    23    24    1
    31    23    88    1
    32    23    89    1
    33    24    25    1
    34    24    26    1
    35    24    90    1
    36    25    91    1
    37    25    92    1
    38    25    93    1
    39    26    94    1
    40    26    95    1
    41    26    96    1
    42    27    28   ar
    43    28    29   ar
    44    29    30   ar
    45    29    31    1
    46    30    33    1
    47    31    32    1
    48    32    33    1
    49    32    35    1
    50    34    97    1
    51    34    98    1
    52    34    99    1
    53    35    61    1
    54    36    37    1
    55    36    60    1
    56    37    38    1
    57    38    39    1
    58    39    40    1
    59    40    41    1
    60    41    42    1
    61    45   100    1
    62    47   101    1
    63    47   102    1
    64    47   103    1
    65    48   104    1
    66    49   105    1
    67    49   106    1
    68    49   107    1
    69    50   108    1
    70    51    59    1
    71    52   109    1
    72    52   110    1
    73    52   111    1
    74    53    54    1
    75    54    55    2
    76    54    56    1
    77    56   112    1
    78    56   113    1
    79    56   114    1
    80    57   115    1
    81    57   116    1
    82    57   117    1
    83    58   118    1
    84    58   119    1
    85    58   120    1
    86    59   121    1
    87    59   122    1
    88    59   123    1
    89    60    61    2
    90     1    47    1
    91     1    62    1
    92     2    63    1
    93     3    64    1
    94     4    65    1
    95     5     6    1
    96     7     8    2
    97     9    78    1
    98    15    79    1
    99    18    80    1
   100    18    81    1
   101    19    82    1
   102    19    83    1
   103    20    23    1
   104    21    84    1
   105    21    85    1
   106    22    86    1
   107    22    87    1
   108    27    45    1
   109    28    34    1
   110    32    58    1
   111    33    46    2
   112    36    51    1
   113    36    66    1
   114    37    52    1
   115    37    67    1
   116    38    53    1
   117    38    68    1
   118    42    48    1
   119    42    72    1
   120    43    44    2
   121    60    73    1
   122    61    74    1
   123    39    69    1
   124    39    57    1
   125    40    70    1
   126    40    50    1
   127    41    71    1
   128    41    49    1
