@<TRIPOS>MOLECULE
*****
 123 128 0 0 0
SMALL
GASTEIGER

@<TRIPOS>ATOM
     1 C         3.059604   2.470738   -1.314171 C.3        1 UNL1     0.0009
     2 C         3.027074   4.31848   -1.461914 C.2        1 UNL1     -0.0787
     3 C         2.881447   5.511652   -2.268871 C.2        1 UNL1     -0.0649
     4 C         2.831614   7.121365   -1.746664 C.2        1 UNL1     -0.0542
     5 C         2.440064   8.440165   -2.085093 C.2        1 UNL1     0.0115
     6 C         1.929407   9.341342   -3.242863 C.3        1 UNL1     -0.0348
     7 C         2.29475   9.531386   -0.916714 C.2        1 UNL1     0.2441
     8 O         3.139387   10.388958   -0.698345 O.2        1 UNL1     -0.2702
     9 N         1.018447   9.601443   -0.331656 N.am        1 UNL1     -0.2772
     10 C         0.918948   8.710067   0.711834 C.2        1 UNL1     0.1049
     11 C         0.629564   7.463186   0.386614 C.2        1 UNL1     0.0801
     12 C         2.095014   7.938284   2.7803 C.ar        1 UNL1     0.0753
     13 C         1.938864   6.607154   2.277985 C.ar        1 UNL1     0.0305
     14 C         1.084496   6.318494   1.128298 C.2        1 UNL1     0.0924
     15 N         0.207356   6.951069   -0.782147 N.pl3        1 UNL1     -0.3170
     16 C         -0.128155   5.569499   -0.560897 C.3        1 UNL1     0.1275
     17 N         0.74779   5.14816   0.593624 N.2        1 UNL1     -0.2557
     18 C         -1.561984   5.530052   -0.041013 C.3        1 UNL1     0.0016
     19 C         -2.460942   6.242341   -1.039066 C.3        1 UNL1     0.0026
     20 N         -2.352211   5.572462   -2.327657 N.3        1 UNL1     -0.3018
     21 C         -0.998135   5.505237   -2.881127 C.3        1 UNL1     0.0026
     22 C         -0.11327   4.781947   -1.864387 C.3        1 UNL1     0.0016
     23 C         -3.382337   5.978336   -3.262938 C.3        1 UNL1     0.0012
     24 C         -4.751421   5.433912   -2.825943 C.3        1 UNL1     -0.0339
     25 C         -5.693189   6.567203   -2.386875 C.3        1 UNL1     -0.0615
     26 C         -5.360568   4.601106   -3.940462 C.3        1 UNL1     -0.0615
     27 C         2.812806   8.189801   3.94719 C.ar        1 UNL1     0.1347
     28 C         3.383634   7.191416   4.716237 C.ar        1 UNL1     0.0342
     29 C         3.258789   5.893724   4.176263 C.ar        1 UNL1     0.1435
     30 C         2.573589   5.630699   2.989444 C.ar        1 UNL1     0.0774
     31 O         3.66567   4.803032   4.861716 O.3        1 UNL1     -0.4436
     32 C         2.969358   3.708119   4.24756 C.3        1 UNL1     0.3143
     33 C         2.625009   4.190057   2.852794 C.2        1 UNL1     0.2504
     34 C         3.94712   7.35773   6.100044 C.3        1 UNL1     -0.0327
     35 O         3.908349   2.636044   4.09855 O.2        1 UNL1     -0.4528
     36 C         1.878742   -0.563711   4.32296 C.3        1 UNL1     0.0854
     37 C         0.65321   -1.029741   3.446371 C.3        1 UNL1     0.0236
     38 C         0.828291   -2.462302   2.747186 C.3        1 UNL1     0.1131
     39 C         2.133428   -2.772605   1.908974 C.3        1 UNL1     0.0200
     40 C         2.75015   -1.636872   0.854364 C.3        1 UNL1     0.0661
     41 C         1.870195   -0.798551   -0.329067 C.3        1 UNL1     0.0091
     42 C         2.086122   0.897546   -0.993922 C.3        1 UNL1     0.0661
     43 C         1.39174   9.03278   2.066336 C.2        1 UNL1     0.2131
     44 O         1.115718   10.102312   2.578831 O.2        1 UNL1     -0.2851
     45 O         2.956092   9.518119   4.342766 O.3        1 UNL1     -0.5056
     46 O         2.453727   3.534014   1.849737 O.2        1 UNL1     -0.2836
     47 C         4.390106   1.907674   -1.882241 C.3        1 UNL1     -0.0566
     48 O         1.980428   0.477784   -2.412282 O.3        1 UNL1     -0.3909
     49 C         0.393173   -0.982526   -0.06064 C.3        1 UNL1     -0.0577
     50 O         3.622377   -0.750568   1.526233 O.3        1 UNL1     -0.3910
     51 O         3.03317   -1.369158   4.245614 O.3        1 UNL1     -0.3753
     52 C         -0.031825   0.172473   2.718115 C.3        1 UNL1     -0.0564
     53 O         -0.455401   -3.034687   2.221034 O.3        1 UNL1     -0.4608
     54 C         -0.569328   -4.179386   1.476311 C.2        1 UNL1     0.3042
     55 O         -1.447498   -5.037528   1.555366 O.2        1 UNL1     -0.2512
     56 C         0.494071   -4.321036   0.424725 C.3        1 UNL1     0.0332
     57 C         3.160091   -3.526378   2.876426 C.3        1 UNL1     -0.0567
     58 C         1.6595   3.51889   5.047557 C.3        1 UNL1     0.0210
     59 C         3.29613   -2.153037   5.408477 C.3        1 UNL1     0.0372
     60 C         2.318327   0.839637   4.093743 C.2        1 UNL1     -0.0208
     61 C         3.542041   1.348983   3.94597 C.2        1 UNL1     0.0882
     62 H         3.202213   2.578926   -0.232196 H        1 UNL1     0.0365
     63 H         3.280553   4.608906   -0.440214 H        1 UNL1     0.0576
     64 H         2.616434   5.458124   -3.327176 H        1 UNL1     0.0615
     65 H         3.185838   7.071246   -0.713467 H        1 UNL1     0.0622
     66 H         1.507492   -0.598109   5.356902 H        1 UNL1     0.0645
     67 H         -0.139535   -1.241359   4.184837 H        1 UNL1     0.0362
     68 H         0.899467   -3.097032   3.64361 H        1 UNL1     0.0741
     69 H         1.938389   -3.616673   1.260963 H        1 UNL1     0.0359
     70 H         3.419662   -2.279992   0.251693 H        1 UNL1     0.0600
     71 H         2.019133   -1.473263   -1.194826 H        1 UNL1     0.0348
     72 H         3.044156   0.631805   -0.523957 H        1 UNL1     0.0602
     73 H         1.481435   1.486817   4.183292 H        1 UNL1     0.0628
     74 H         4.442652   0.7544   3.789105 H        1 UNL1     0.1022
     75 H         2.538233   9.177893   -4.164627 H        1 UNL1     0.0279
     76 H         0.917378   9.152924   -3.594096 H        1 UNL1     0.0279
     77 H         2.101448   10.411537   -3.056352 H        1 UNL1     0.0279
     78 H         0.312433   9.347774   -1.019604 H        1 UNL1     0.1553
     79 H         -0.204088   7.499943   -1.51453 H        1 UNL1     0.1484
     80 H         -1.86423   4.484664   0.095289 H        1 UNL1     0.0317
     81 H         -1.635187   6.008174   0.941683 H        1 UNL1     0.0317
     82 H         -2.20842   7.309457   -1.125143 H        1 UNL1     0.0428
     83 H         -3.478104   6.204062   -0.647957 H        1 UNL1     0.0428
     84 H         -0.931625   4.928477   -3.808885 H        1 UNL1     0.0428
     85 H         -0.619529   6.49912   -3.157118 H        1 UNL1     0.0428
     86 H         0.83051   4.633696   -2.355601 H        1 UNL1     0.0317
     87 H         -0.48086   3.76052   -1.707352 H        1 UNL1     0.0317
     88 H         -3.427387   7.075264   -3.266553 H        1 UNL1     0.0429
     89 H         -3.138951   5.663078   -4.285753 H        1 UNL1     0.0429
     90 H         -4.6125   4.74846   -1.981508 H        1 UNL1     0.0308
     91 H         -5.412604   7.518749   -2.848323 H        1 UNL1     0.0233
     92 H         -6.727724   6.332978   -2.64857 H        1 UNL1     0.0233
     93 H         -5.680319   6.723981   -1.301476 H        1 UNL1     0.0233
     94 H         -6.364488   4.267092   -3.656887 H        1 UNL1     0.0233
     95 H         -5.449521   5.201872   -4.849929 H        1 UNL1     0.0233
     96 H         -4.751589   3.719212   -4.158121 H        1 UNL1     0.0233
     97 H         3.451373   6.715403   6.821766 H        1 UNL1     0.0280
     98 H         5.012415   7.096623   6.147223 H        1 UNL1     0.0280
     99 H         3.823216   8.403515   6.425738 H        1 UNL1     0.0280
     100 H         3.245119   10.100303   3.662217 H        1 UNL1     0.2922
     101 H         4.277536   0.845328   -2.097658 H        1 UNL1     0.0236
     102 H         5.248123   2.106255   -1.240871 H        1 UNL1     0.0236
     103 H         4.65236   2.363531   -2.851577 H        1 UNL1     0.0236
     104 H         2.781858   -0.03825   -2.627667 H        1 UNL1     0.2098
     105 H         -0.144027   -1.507961   -0.846227 H        1 UNL1     0.0234
     106 H         0.157408   -1.414124   0.912019 H        1 UNL1     0.0234
     107 H         0.0   0.0   0.0 H        1 UNL1     0.0234
     108 H         3.71568   0.044402   0.966692 H        1 UNL1     0.2098
     109 H         -0.425869   0.916697   3.424211 H        1 UNL1     0.0234
     110 H         0.623751   0.666532   1.992946 H        1 UNL1     0.0234
     111 H         -0.892562   -0.154215   2.119489 H        1 UNL1     0.0234
     112 H         1.414489   -4.70443   0.875485 H        1 UNL1     0.0342
     113 H         0.171283   -4.952466   -0.401681 H        1 UNL1     0.0342
     114 H         0.708742   -3.323492   0.01731 H        1 UNL1     0.0342
     115 H         2.697992   -4.395232   3.365041 H        1 UNL1     0.0234
     116 H         4.06677   -3.874047   2.377316 H        1 UNL1     0.0234
     117 H         3.46209   -2.925453   3.751427 H        1 UNL1     0.0234
     118 H         1.664178   2.584469   5.63564 H        1 UNL1     0.0309
     119 H         1.436955   4.35944   5.712502 H        1 UNL1     0.0309
     120 H         0.783767   3.404952   4.399317 H        1 UNL1     0.0309
     121 H         2.684992   -3.052919   5.344602 H        1 UNL1     0.0524
     122 H         4.350233   -2.471228   5.468959 H        1 UNL1     0.0524
     123 H         3.04514   -1.592295   6.304394 H        1 UNL1     0.0524
@<TRIPOS>BOND
     1     1     2    1
     2     1    42    1
     3     2     3    2
     4     3     4    1
     5     4     5    2
     6     5     7    1
     7     6    75    1
     8     6    76    1
     9     6    77    1
    10     7     9   am
    11     9    10    1
    12    10    11    2
    13    10    43    1
    14    11    14    1
    15    11    15    1
    16    12    13   ar
    17    12    27   ar
    18    12    43    1
    19    13    14    1
    20    13    30   ar
    21    14    17    2
    22    15    16    1
    23    16    17    1
    24    16    18    1
    25    16    22    1
    26    18    19    1
    27    19    20    1
    28    20    21    1
    29    21    22    1
    30    23    24    1
    31    23    88    1
    32    23    89    1
    33    24    25    1
    34    24    26    1
    35    24    90    1
    36    25    91    1
    37    25    92    1
    38    25    93    1
    39    26    94    1
    40    26    95    1
    41    26    96    1
    42    27    28   ar
    43    28    29   ar
    44    29    30   ar
    45    29    31    1
    46    30    33    1
    47    31    32    1
    48    32    33    1
    49    32    35    1
    50    34    97    1
    51    34    98    1
    52    34    99    1
    53    35    61    1
    54    36    37    1
    55    36    60    1
    56    37    38    1
    57    38    39    1
    58    39    40    1
    59    40    41    1
    60    41    42    1
    61    45   100    1
    62    47   101    1
    63    47   102    1
    64    47   103    1
    65    48   104    1
    66    49   105    1
    67    49   106    1
    68    49   107    1
    69    50   108    1
    70    51    59    1
    71    52   109    1
    72    52   110    1
    73    52   111    1
    74    53    54    1
    75    54    55    2
    76    54    56    1
    77    56   112    1
    78    56   113    1
    79    56   114    1
    80    57   115    1
    81    57   116    1
    82    57   117    1
    83    58   118    1
    84    58   119    1
    85    58   120    1
    86    59   121    1
    87    59   122    1
    88    59   123    1
    89    60    61    2
    90     1    47    1
    91     1    62    1
    92     2    63    1
    93     3    64    1
    94     4    65    1
    95     5     6    1
    96     7     8    2
    97     9    78    1
    98    15    79    1
    99    18    80    1
   100    18    81    1
   101    19    82    1
   102    19    83    1
   103    20    23    1
   104    21    84    1
   105    21    85    1
   106    22    86    1
   107    22    87    1
   108    27    45    1
   109    28    34    1
   110    32    58    1
   111    33    46    2
   112    36    51    1
   113    36    66    1
   114    37    52    1
   115    37    67    1
   116    38    53    1
   117    38    68    1
   118    42    48    1
   119    42    72    1
   120    43    44    2
   121    60    73    1
   122    61    74    1
   123    39    69    1
   124    39    57    1
   125    40    70    1
   126    40    50    1
   127    41    71    1
   128    41    49    1
