@<TRIPOS>MOLECULE
*****
 123 128 0 0 0
SMALL
GASTEIGER

@<TRIPOS>ATOM
     1 C         5.165629   1.762606   0.457251 C.3        1 UNL1     0.0009
     2 C         6.594472   2.572598   -0.402608 C.2        1 UNL1     -0.0787
     3 C         7.872249   2.477894   -1.076674 C.2        1 UNL1     -0.0649
     4 C         8.741282   3.715349   -1.838149 C.2        1 UNL1     -0.0542
     5 C         9.754337   4.010698   -2.783436 C.2        1 UNL1     0.0115
     6 C         10.878609   3.388276   -3.656319 C.3        1 UNL1     -0.0348
     7 C         9.841559   5.494118   -3.390764 C.2        1 UNL1     0.2441
     8 O         10.665585   6.31813   -3.018594 O.2        1 UNL1     -0.2702
     9 N         9.083136   5.698793   -4.556549 N.am        1 UNL1     -0.2772
     10 C         7.801417   6.081931   -4.234483 C.2        1 UNL1     0.1049
     11 C         6.96028   5.1082   -3.936895 C.2        1 UNL1     0.0801
     12 C         6.507764   7.685169   -2.815531 C.ar        1 UNL1     0.0753
     13 C         5.754807   6.555204   -2.362935 C.ar        1 UNL1     0.0305
     14 C         5.871181   5.249731   -3.008882 C.2        1 UNL1     0.0924
     15 N         7.085582   3.779545   -4.09659 N.pl3        1 UNL1     -0.3170
     16 C         5.819484   3.176872   -3.774045 C.3        1 UNL1     0.1275
     17 N         5.186819   4.13048   -2.790129 N.2        1 UNL1     -0.2557
     18 C         4.958244   3.233349   -5.03213 C.3        1 UNL1     0.0016
     19 C         5.707656   2.55119   -6.165546 C.3        1 UNL1     0.0026
     20 N         5.98417   1.173913   -5.781259 N.3        1 UNL1     -0.3018
     21 C         6.756046   1.015859   -4.54692 C.3        1 UNL1     0.0026
     22 C         5.982703   1.704378   -3.420964 C.3        1 UNL1     0.0016
     23 C         6.423718   0.355443   -6.89371 C.3        1 UNL1     0.0012
     24 C         5.262591   0.102572   -7.868183 C.3        1 UNL1     -0.0339
     25 C         5.347125   1.025235   -9.095213 C.3        1 UNL1     -0.0615
     26 C         5.230129   -1.361519   -8.270878 C.3        1 UNL1     -0.0615
     27 C         6.30308   8.952372   -2.274775 C.ar        1 UNL1     0.1347
     28 C         5.349558   9.219391   -1.308574 C.ar        1 UNL1     0.0342
     29 C         4.654197   8.083056   -0.843405 C.ar        1 UNL1     0.1435
     30 C         4.873927   6.801566   -1.350082 C.ar        1 UNL1     0.0774
     31 O         3.618486   8.193848   0.016847 O.3        1 UNL1     -0.4436
     32 C         2.899352   6.958989   -0.120416 C.3        1 UNL1     0.3143
     33 C         3.911931   5.968636   -0.659025 C.2        1 UNL1     0.2504
     34 C         4.901781   10.584312   -0.865191 C.3        1 UNL1     -0.0327
     35 O         2.548545   6.5215   1.198216 O.2        1 UNL1     -0.4528
     36 C         -0.691598   4.580174   0.822966 C.3        1 UNL1     0.0854
     37 C         -0.999228   3.318589   -0.072182 C.3        1 UNL1     0.0236
     38 C         -1.591087   2.056001   0.719853 C.3        1 UNL1     0.1131
     39 C         -0.855357   1.527322   2.016568 C.3        1 UNL1     0.0200
     40 C         0.80647   1.386436   2.046901 C.3        1 UNL1     0.0661
     41 C         1.76033   0.620096   0.871962 C.3        1 UNL1     0.0091
     42 C         3.463173   0.987336   0.296754 C.3        1 UNL1     0.0661
     43 C         7.451039   7.479935   -3.942639 C.2        1 UNL1     0.2131
     44 O         7.843701   8.379006   -4.663906 O.2        1 UNL1     -0.2851
     45 O         7.109431   9.989671   -2.738724 O.3        1 UNL1     -0.5056
     46 O         3.932145   4.765174   -0.528168 O.2        1 UNL1     -0.2836
     47 C         5.572585   1.33449   1.892899 C.3        1 UNL1     -0.0566
     48 O         3.916212   -0.422494   0.375826 O.3        1 UNL1     -0.3909
     49 C         0.91871   0.384955   -0.362493 C.3        1 UNL1     -0.0577
     50 O         1.405811   2.606042   2.435583 O.3        1 UNL1     -0.3910
     51 O         -0.806056   4.390397   2.2152 O.3        1 UNL1     -0.3753
     52 C         0.038116   3.160838   -1.231485 C.3        1 UNL1     -0.0564
     53 O         -2.196649   1.015176   -0.175862 O.3        1 UNL1     -0.4608
     54 C         -2.400244   -0.298666   0.156248 C.2        1 UNL1     0.3042
     55 O         -1.823343   -1.283315   -0.303634 O.2        1 UNL1     -0.2512
     56 C         -3.413165   -0.492882   1.248486 C.3        1 UNL1     0.0332
     57 C         -1.569993   2.194519   3.282395 C.3        1 UNL1     -0.0567
     58 C         1.816409   7.200877   -1.197567 C.3        1 UNL1     0.0210
     59 C         -1.117706   5.568654   2.957124 C.3        1 UNL1     0.0372
     60 C         0.634095   5.212932   0.583562 C.2        1 UNL1     -0.0208
     61 C         1.551475   5.650873   1.446908 C.2        1 UNL1     0.0882
     62 H         4.687538   2.745459   0.547471 H        1 UNL1     0.0365
     63 H         6.325972   3.625668   -0.295735 H        1 UNL1     0.0576
     64 H         8.331151   1.512289   -1.300554 H        1 UNL1     0.0615
     65 H         8.253919   4.629442   -1.4883 H        1 UNL1     0.0622
     66 H         -1.440348   5.32456   0.5175 H        1 UNL1     0.0645
     67 H         -1.869618   3.625421   -0.67785 H        1 UNL1     0.0362
     68 H         -2.537055   2.490291   1.077708 H        1 UNL1     0.0741
     69 H         -1.182764   0.515336   2.2143 H        1 UNL1     0.0359
     70 H         0.925855   0.726581   2.927469 H        1 UNL1     0.0600
     71 H         1.809562   -0.400866   1.298777 H        1 UNL1     0.0348
     72 H         3.362339   1.475422   1.277019 H        1 UNL1     0.0602
     73 H         0.744653   5.410321   -0.453772 H        1 UNL1     0.0628
     74 H         1.54152   5.440358   2.516872 H        1 UNL1     0.1022
     75 H         10.908438   2.279707   -3.525098 H        1 UNL1     0.0279
     76 H         10.771067   3.493853   -4.733518 H        1 UNL1     0.0279
     77 H         11.885909   3.673664   -3.319272 H        1 UNL1     0.0279
     78 H         9.020135   4.828578   -5.080794 H        1 UNL1     0.1553
     79 H         7.747992   3.353302   -4.718251 H        1 UNL1     0.1484
     80 H         3.99963   2.739766   -4.831626 H        1 UNL1     0.0317
     81 H         4.726968   4.269414   -5.301818 H        1 UNL1     0.0317
     82 H         6.635186   3.085046   -6.419707 H        1 UNL1     0.0428
     83 H         5.076528   2.60442   -7.05318 H        1 UNL1     0.0428
     84 H         6.881303   -0.026695   -4.23837 H        1 UNL1     0.0428
     85 H         7.784404   1.38675   -4.65754 H        1 UNL1     0.0428
     86 H         6.505757   1.455628   -2.51624 H        1 UNL1     0.0317
     87 H         5.005437   1.224028   -3.289385 H        1 UNL1     0.0317
     88 H         7.214795   0.899364   -7.426291 H        1 UNL1     0.0429
     89 H         6.861245   -0.589051   -6.545464 H        1 UNL1     0.0429
     90 H         4.313507   0.292655   -7.353089 H        1 UNL1     0.0308
     91 H         6.299389   0.902946   -9.619943 H        1 UNL1     0.0233
     92 H         4.52718   0.822521   -9.788183 H        1 UNL1     0.0233
     93 H         5.265643   2.085511   -8.826865 H        1 UNL1     0.0233
     94 H         4.548254   -1.505793   -9.115904 H        1 UNL1     0.0233
     95 H         6.226961   -1.68538   -8.582969 H        1 UNL1     0.0233
     96 H         4.895604   -1.995273   -7.444793 H        1 UNL1     0.0233
     97 H         4.107107   10.53257   -0.126919 H        1 UNL1     0.0280
     98 H         5.713628   11.153226   -0.393495 H        1 UNL1     0.0280
     99 H         4.529628   11.151035   -1.734341 H        1 UNL1     0.0280
     100 H         6.638426   10.743588   -3.047569 H        1 UNL1     0.2922
     101 H         4.711167   0.909944   2.408046 H        1 UNL1     0.0236
     102 H         6.035969   2.137854   2.464622 H        1 UNL1     0.0236
     103 H         6.321901   0.525365   1.887025 H        1 UNL1     0.0236
     104 H         4.336446   -0.548731   1.249003 H        1 UNL1     0.2098
     105 H         0.70043   1.28297   -0.934973 H        1 UNL1     0.0234
     106 H         1.285585   -0.402668   -1.020506 H        1 UNL1     0.0234
     107 H         0.0   -0.0   0.0 H        1 UNL1     0.0234
     108 H         1.215864   3.258979   1.734611 H        1 UNL1     0.2098
     109 H         1.067143   3.062699   -0.858412 H        1 UNL1     0.0234
     110 H         -0.189722   2.325367   -1.902172 H        1 UNL1     0.0234
     111 H         0.043741   4.038327   -1.891733 H        1 UNL1     0.0234
     112 H         -3.512401   -1.557962   1.478925 H        1 UNL1     0.0342
     113 H         -3.166766   0.078866   2.141927 H        1 UNL1     0.0342
     114 H         -4.385447   -0.135539   0.882237 H        1 UNL1     0.0342
     115 H         -2.64125   1.95342   3.320719 H        1 UNL1     0.0234
     116 H         -1.134127   1.906643   4.241142 H        1 UNL1     0.0234
     117 H         -1.601058   3.296859   3.239682 H        1 UNL1     0.0234
     118 H         0.914847   7.681103   -0.77855 H        1 UNL1     0.0309
     119 H         2.177298   7.793618   -2.044101 H        1 UNL1     0.0309
     120 H         1.430972   6.267876   -1.62307 H        1 UNL1     0.0309
     121 H         -0.282314   6.259283   2.84529 H        1 UNL1     0.0524
     122 H         -2.020531   6.075487   2.577567 H        1 UNL1     0.0524
     123 H         -1.264684   5.324798   4.005469 H        1 UNL1     0.0524
@<TRIPOS>BOND
     1     1     2    1
     2     1    42    1
     3     2     3    2
     4     3     4    1
     5     4     5    2
     6     5     7    1
     7     6    75    1
     8     6    76    1
     9     6    77    1
    10     7     9   am
    11     9    10    1
    12    10    11    2
    13    10    43    1
    14    11    14    1
    15    11    15    1
    16    12    13   ar
    17    12    27   ar
    18    12    43    1
    19    13    14    1
    20    13    30   ar
    21    14    17    2
    22    15    16    1
    23    16    17    1
    24    16    18    1
    25    16    22    1
    26    18    19    1
    27    19    20    1
    28    20    21    1
    29    21    22    1
    30    23    24    1
    31    23    88    1
    32    23    89    1
    33    24    25    1
    34    24    26    1
    35    24    90    1
    36    25    91    1
    37    25    92    1
    38    25    93    1
    39    26    94    1
    40    26    95    1
    41    26    96    1
    42    27    28   ar
    43    28    29   ar
    44    29    30   ar
    45    29    31    1
    46    30    33    1
    47    31    32    1
    48    32    33    1
    49    32    35    1
    50    34    97    1
    51    34    98    1
    52    34    99    1
    53    35    61    1
    54    36    37    1
    55    36    60    1
    56    37    38    1
    57    38    39    1
    58    39    40    1
    59    40    41    1
    60    41    42    1
    61    45   100    1
    62    47   101    1
    63    47   102    1
    64    47   103    1
    65    48   104    1
    66    49   105    1
    67    49   106    1
    68    49   107    1
    69    50   108    1
    70    51    59    1
    71    52   109    1
    72    52   110    1
    73    52   111    1
    74    53    54    1
    75    54    55    2
    76    54    56    1
    77    56   112    1
    78    56   113    1
    79    56   114    1
    80    57   115    1
    81    57   116    1
    82    57   117    1
    83    58   118    1
    84    58   119    1
    85    58   120    1
    86    59   121    1
    87    59   122    1
    88    59   123    1
    89    60    61    2
    90     1    47    1
    91     1    62    1
    92     2    63    1
    93     3    64    1
    94     4    65    1
    95     5     6    1
    96     7     8    2
    97     9    78    1
    98    15    79    1
    99    18    80    1
   100    18    81    1
   101    19    82    1
   102    19    83    1
   103    20    23    1
   104    21    84    1
   105    21    85    1
   106    22    86    1
   107    22    87    1
   108    27    45    1
   109    28    34    1
   110    32    58    1
   111    33    46    2
   112    36    51    1
   113    36    66    1
   114    37    52    1
   115    37    67    1
   116    38    53    1
   117    38    68    1
   118    42    48    1
   119    42    72    1
   120    43    44    2
   121    60    73    1
   122    61    74    1
   123    39    69    1
   124    39    57    1
   125    40    70    1
   126    40    50    1
   127    41    71    1
   128    41    49    1
