@<TRIPOS>MOLECULE
*****
 123 128 0 0 0
SMALL
GASTEIGER

@<TRIPOS>ATOM
     1 C         5.080977   1.793388   0.989539 C.3        1 UNL1     0.0009
     2 C         6.888239   1.382091   0.948589 C.2        1 UNL1     -0.0787
     3 C         8.103599   0.992704   1.632199 C.2        1 UNL1     -0.0649
     4 C         9.606153   0.615025   0.949523 C.2        1 UNL1     -0.0542
     5 C         10.844966   -0.039626   1.158934 C.2        1 UNL1     0.0115
     6 C         11.737899   -0.727273   2.228109 C.3        1 UNL1     -0.0348
     7 C         11.756304   -0.402724   -0.11174 C.2        1 UNL1     0.2441
     8 O         12.740988   0.248566   -0.432281 O.2        1 UNL1     -0.2702
     9 N         11.503061   -1.664746   -0.676822 N.am        1 UNL1     -0.2772
     10 C         10.506856   -1.576579   -1.621874 C.2        1 UNL1     0.1049
     11 C         9.267747   -1.604833   -1.165768 C.2        1 UNL1     0.0801
     12 C         9.781385   -0.26189   -3.622529 C.ar        1 UNL1     0.0753
     13 C         8.505855   -0.142914   -2.984189 C.ar        1 UNL1     0.0305
     14 C         8.169541   -0.922834   -1.795211 C.2        1 UNL1     0.0924
     15 N         8.804194   -1.915991   0.056863 N.pl3        1 UNL1     -0.3170
     16 C         7.367885   -1.960356   -0.015946 C.3        1 UNL1     0.1275
     17 N         7.016995   -1.013644   -1.137702 N.2        1 UNL1     -0.2557
     18 C         6.982624   -3.354255   -0.502074 C.3        1 UNL1     0.0016
     19 C         7.595796   -4.38278   0.434807 C.3        1 UNL1     0.0026
     20 N         7.099583   -4.142236   1.782746 N.3        1 UNL1     -0.3018
     21 C         7.368197   -2.804596   2.31466 C.3        1 UNL1     0.0026
     22 C         6.7395   -1.787559   1.36058 C.3        1 UNL1     0.0016
     23 C         7.381182   -5.236114   2.690918 C.3        1 UNL1     0.0012
     24 C         7.56236   -4.71291   4.124511 C.3        1 UNL1     -0.0339
     25 C         8.604767   -5.538148   4.896798 C.3        1 UNL1     -0.0615
     26 C         7.924442   -3.238117   4.098782 C.3        1 UNL1     -0.0615
     27 C         10.051857   0.392024   -4.822262 C.ar        1 UNL1     0.1347
     28 C         9.116907   1.157507   -5.496024 C.ar        1 UNL1     0.0342
     29 C         7.884226   1.300165   -4.824228 C.ar        1 UNL1     0.1435
     30 C         7.611279   0.68046   -3.604111 C.ar        1 UNL1     0.0774
     31 O         6.834598   1.923913   -5.402351 O.3        1 UNL1     -0.4436
     32 C         5.690236   1.465469   -4.66673 C.3        1 UNL1     0.3143
     33 C         6.233639   1.025995   -3.322189 C.2        1 UNL1     0.2504
     34 C         9.25042   1.678434   -6.899915 C.3        1 UNL1     -0.0327
     35 O         4.853982   2.604046   -4.426782 O.2        1 UNL1     -0.4528
     36 C         1.301404   1.27465   -4.285429 C.3        1 UNL1     0.0854
     37 C         0.688283   0.168552   -3.343011 C.3        1 UNL1     0.0236
     38 C         -0.59789   0.632017   -2.504736 C.3        1 UNL1     0.1131
     39 C         -0.546356   1.970898   -1.663897 C.3        1 UNL1     0.0200
     40 C         0.794533   2.33879   -0.742425 C.3        1 UNL1     0.0661
     41 C         1.55349   1.302532   0.365619 C.3        1 UNL1     0.0091
     42 C         3.31753   1.164191   0.849797 C.3        1 UNL1     0.0661
     43 C         10.777116   -1.176578   -3.010871 C.2        1 UNL1     0.2131
     44 O         11.708653   -1.664837   -3.624532 O.2        1 UNL1     -0.2851
     45 O         11.33309   0.26076   -5.353911 O.3        1 UNL1     -0.5056
     46 O         5.664073   0.990377   -2.254397 O.2        1 UNL1     -0.2836
     47 C         4.863641   3.209645   1.587004 C.3        1 UNL1     -0.0566
     48 O         3.034428   1.143226   2.305314 O.3        1 UNL1     -0.3909
     49 C         1.044798   -0.104635   0.145146 C.3        1 UNL1     -0.0577
     50 O         1.765792   3.012351   -1.51747 O.3        1 UNL1     -0.3910
     51 O         0.761269   2.569564   -4.148007 O.3        1 UNL1     -0.3753
     52 C         1.794075   -0.750421   -2.72847 C.3        1 UNL1     -0.0564
     53 O         -1.362759   -0.508286   -1.898921 O.3        1 UNL1     -0.4608
     54 C         -1.968892   -0.495266   -0.669953 C.2        1 UNL1     0.3042
     55 O         -1.903319   -1.358491   0.204336 O.2        1 UNL1     -0.2512
     56 C         -2.741236   0.76324   -0.393618 C.3        1 UNL1     0.0332
     57 C         -1.170643   3.132844   -2.568508 C.3        1 UNL1     -0.0567
     58 C         5.155459   0.224352   -5.418508 C.3        1 UNL1     0.0210
     59 C         1.666847   3.545363   -3.634577 C.3        1 UNL1     0.0372
     60 C         2.781002   1.416387   -4.208873 C.2        1 UNL1     -0.0208
     61 C         3.542142   2.509191   -4.136841 C.2        1 UNL1     0.0882
     62 H         5.10322   1.913543   -0.100314 H        1 UNL1     0.0365
     63 H         7.116775   1.573216   -0.101988 H        1 UNL1     0.0576
     64 H         8.107098   0.741596   2.695233 H        1 UNL1     0.0615
     65 H         9.522595   0.974645   -0.079639 H        1 UNL1     0.0622
     66 H         1.084847   0.921007   -5.303312 H        1 UNL1     0.0645
     67 H         0.243745   -0.562019   -4.041017 H        1 UNL1     0.0362
     68 H         -1.294153   0.834197   -3.332904 H        1 UNL1     0.0741
     69 H         -1.340618   1.951514   -0.929608 H        1 UNL1     0.0359
     70 H         0.367811   3.124454   -0.089968 H        1 UNL1     0.0600
     71 H         1.01694   1.584503   1.292745 H        1 UNL1     0.0348
     72 H         3.205861   2.157568   0.391488 H        1 UNL1     0.0602
     73 H         3.23069   0.464755   -4.348249 H        1 UNL1     0.0628
     74 H         3.163651   3.512224   -3.937075 H        1 UNL1     0.1022
     75 H         12.30348   -1.578437   1.777917 H        1 UNL1     0.0279
     76 H         12.531152   -0.121368   2.660196 H        1 UNL1     0.0279
     77 H         11.152393   -1.242187   3.003831 H        1 UNL1     0.0279
     78 H         11.183234   -2.305462   0.046553 H        1 UNL1     0.1553
     79 H         9.330353   -2.433167   0.737024 H        1 UNL1     0.1484
     80 H         5.889158   -3.435251   -0.525315 H        1 UNL1     0.0317
     81 H         7.331162   -3.521471   -1.526872 H        1 UNL1     0.0317
     82 H         8.695043   -4.354779   0.406811 H        1 UNL1     0.0428
     83 H         7.310156   -5.369446   0.068814 H        1 UNL1     0.0428
     84 H         6.916581   -2.623554   3.295006 H        1 UNL1     0.0428
     85 H         8.441615   -2.638656   2.480657 H        1 UNL1     0.0428
     86 H         6.838959   -0.834703   1.846545 H        1 UNL1     0.0317
     87 H         5.653857   -1.937371   1.315501 H        1 UNL1     0.0317
     88 H         6.524413   -5.9224   2.675013 H        1 UNL1     0.0429
     89 H         8.258544   -5.809381   2.364766 H        1 UNL1     0.0429
     90 H         6.60436   -4.776931   4.653992 H        1 UNL1     0.0308
     91 H         9.503229   -5.706872   4.295631 H        1 UNL1     0.0233
     92 H         8.884028   -5.035678   5.825854 H        1 UNL1     0.0233
     93 H         8.225059   -6.525734   5.185468 H        1 UNL1     0.0233
     94 H         8.423005   -2.955265   5.032198 H        1 UNL1     0.0233
     95 H         8.613824   -3.036972   3.274006 H        1 UNL1     0.0233
     96 H         7.036548   -2.611287   3.977557 H        1 UNL1     0.0233
     97 H         9.153274   2.759084   -6.944492 H        1 UNL1     0.0280
     98 H         10.230972   1.446605   -7.335838 H        1 UNL1     0.0280
     99 H         8.465952   1.234493   -7.53444 H        1 UNL1     0.0280
     100 H         11.572486   -0.619318   -5.585804 H        1 UNL1     0.2922
     101 H         4.317396   3.828867   0.875783 H        1 UNL1     0.0236
     102 H         5.788402   3.682858   1.915438 H        1 UNL1     0.0236
     103 H         4.225211   3.186397   2.485926 H        1 UNL1     0.0236
     104 H         2.303185   1.769536   2.472617 H        1 UNL1     0.2098
     105 H         1.454856   -0.598077   -0.732452 H        1 UNL1     0.0234
     106 H         1.119311   -0.757278   1.014878 H        1 UNL1     0.0234
     107 H         -0.0   0.0   0.0 H        1 UNL1     0.0234
     108 H         2.600792   2.999679   -1.011128 H        1 UNL1     0.2098
     109 H         2.449869   -1.182983   -3.496933 H        1 UNL1     0.0234
     110 H         2.401857   -0.244558   -1.970547 H        1 UNL1     0.0234
     111 H         1.358853   -1.605142   -2.193699 H        1 UNL1     0.0234
     112 H         -2.355558   1.245852   0.509534 H        1 UNL1     0.0342
     113 H         -2.72463   1.448143   -1.240066 H        1 UNL1     0.0342
     114 H         -3.788832   0.489069   -0.207778 H        1 UNL1     0.0342
     115 H         -1.699267   3.882163   -1.963309 H        1 UNL1     0.0234
     116 H         -0.436977   3.662437   -3.179504 H        1 UNL1     0.0234
     117 H         -1.980475   2.78586   -3.233125 H        1 UNL1     0.0234
     118 H         4.566705   -0.437659   -4.759632 H        1 UNL1     0.0309
     119 H         4.555636   0.480051   -6.297731 H        1 UNL1     0.0309
     120 H         5.958915   -0.427446   -5.778679 H        1 UNL1     0.0309
     121 H         2.135059   4.040357   -4.484939 H        1 UNL1     0.0524
     122 H         1.154296   4.320145   -3.040404 H        1 UNL1     0.0524
     123 H         2.421961   3.068678   -3.015975 H        1 UNL1     0.0524
@<TRIPOS>BOND
     1     1     2    1
     2     1    42    1
     3     2     3    2
     4     3     4    1
     5     4     5    2
     6     5     7    1
     7     6    75    1
     8     6    76    1
     9     6    77    1
    10     7     9   am
    11     9    10    1
    12    10    11    2
    13    10    43    1
    14    11    14    1
    15    11    15    1
    16    12    13   ar
    17    12    27   ar
    18    12    43    1
    19    13    14    1
    20    13    30   ar
    21    14    17    2
    22    15    16    1
    23    16    17    1
    24    16    18    1
    25    16    22    1
    26    18    19    1
    27    19    20    1
    28    20    21    1
    29    21    22    1
    30    23    24    1
    31    23    88    1
    32    23    89    1
    33    24    25    1
    34    24    26    1
    35    24    90    1
    36    25    91    1
    37    25    92    1
    38    25    93    1
    39    26    94    1
    40    26    95    1
    41    26    96    1
    42    27    28   ar
    43    28    29   ar
    44    29    30   ar
    45    29    31    1
    46    30    33    1
    47    31    32    1
    48    32    33    1
    49    32    35    1
    50    34    97    1
    51    34    98    1
    52    34    99    1
    53    35    61    1
    54    36    37    1
    55    36    60    1
    56    37    38    1
    57    38    39    1
    58    39    40    1
    59    40    41    1
    60    41    42    1
    61    45   100    1
    62    47   101    1
    63    47   102    1
    64    47   103    1
    65    48   104    1
    66    49   105    1
    67    49   106    1
    68    49   107    1
    69    50   108    1
    70    51    59    1
    71    52   109    1
    72    52   110    1
    73    52   111    1
    74    53    54    1
    75    54    55    2
    76    54    56    1
    77    56   112    1
    78    56   113    1
    79    56   114    1
    80    57   115    1
    81    57   116    1
    82    57   117    1
    83    58   118    1
    84    58   119    1
    85    58   120    1
    86    59   121    1
    87    59   122    1
    88    59   123    1
    89    60    61    2
    90     1    47    1
    91     1    62    1
    92     2    63    1
    93     3    64    1
    94     4    65    1
    95     5     6    1
    96     7     8    2
    97     9    78    1
    98    15    79    1
    99    18    80    1
   100    18    81    1
   101    19    82    1
   102    19    83    1
   103    20    23    1
   104    21    84    1
   105    21    85    1
   106    22    86    1
   107    22    87    1
   108    27    45    1
   109    28    34    1
   110    32    58    1
   111    33    46    2
   112    36    51    1
   113    36    66    1
   114    37    52    1
   115    37    67    1
   116    38    53    1
   117    38    68    1
   118    42    48    1
   119    42    72    1
   120    43    44    2
   121    60    73    1
   122    61    74    1
   123    39    69    1
   124    39    57    1
   125    40    70    1
   126    40    50    1
   127    41    71    1
   128    41    49    1
