@<TRIPOS>MOLECULE
*****
 123 128 0 0 0
SMALL
GASTEIGER

@<TRIPOS>ATOM
     1 C         2.20511   -3.878633   -2.951944 C.3        1 UNL1     0.0009
     2 C         1.770328   -5.358465   -3.980584 C.2        1 UNL1     -0.0787
     3 C         1.78085   -6.791344   -4.187448 C.2        1 UNL1     -0.0649
     4 C         1.028152   -7.669802   -5.423617 C.2        1 UNL1     -0.0542
     5 C         0.553427   -8.944826   -5.818622 C.2        1 UNL1     0.0115
     6 C         0.544198   -10.452995   -5.446246 C.3        1 UNL1     -0.0348
     7 C         -0.491784   -9.042608   -7.033101 C.2        1 UNL1     0.2441
     8 O         -0.169   -9.382389   -8.163095 O.2        1 UNL1     -0.2702
     9 N         -1.843426   -8.965749   -6.65454 N.am        1 UNL1     -0.2772
     10 C         -2.258082   -7.65424   -6.618146 C.2        1 UNL1     0.1049
     11 C         -1.97865   -6.985888   -5.51386 C.2        1 UNL1     0.0801
     12 C         -2.254708   -5.535206   -7.947439 C.ar        1 UNL1     0.0753
     13 C         -1.750165   -4.891384   -6.772902 C.ar        1 UNL1     0.0305
     14 C         -1.720917   -5.571741   -5.480111 C.2        1 UNL1     0.0924
     15 N         -1.536923   -7.429057   -4.32432 N.pl3        1 UNL1     -0.3170
     16 C         -1.557972   -6.320682   -3.407087 C.3        1 UNL1     0.1275
     17 N         -1.38448   -5.103064   -4.281746 N.2        1 UNL1     -0.2557
     18 C         -2.969784   -6.233687   -2.835315 C.3        1 UNL1     0.0016
     19 C         -3.32447   -7.573193   -2.209606 C.3        1 UNL1     0.0026
     20 N         -2.354096   -7.873569   -1.16597 N.3        1 UNL1     -0.3018
     21 C         -0.95884   -7.91756   -1.608342 C.3        1 UNL1     0.0026
     22 C         -0.622659   -6.560623   -2.229307 C.3        1 UNL1     0.0016
     23 C         -2.765979   -8.969357   -0.311426 C.3        1 UNL1     0.0012
     24 C         -3.196095   -10.17892   -1.156242 C.3        1 UNL1     -0.0339
     25 C         -3.614703   -11.363567   -0.269994 C.3        1 UNL1     -0.0615
     26 C         -4.304919   -9.777711   -2.113489 C.3        1 UNL1     -0.0615
     27 C         -2.391862   -4.842235   -9.147897 C.ar        1 UNL1     0.1347
     28 C         -2.096007   -3.497747   -9.285264 C.ar        1 UNL1     0.0342
     29 C         -1.554854   -2.896911   -8.128841 C.ar        1 UNL1     0.1435
     30 C         -1.377871   -3.587768   -6.929419 C.ar        1 UNL1     0.0774
     31 O         -1.318722   -1.568091   -8.069804 O.3        1 UNL1     -0.4436
     32 C         -1.243927   -1.27504   -6.666451 C.3        1 UNL1     0.3143
     33 C         -0.880138   -2.589506   -6.00611 C.2        1 UNL1     0.2504
     34 C         -2.451884   -2.632383   -10.461953 C.3        1 UNL1     -0.0327
     35 O         -0.133181   -0.390335   -6.474644 O.2        1 UNL1     -0.4528
     36 C         -1.017481   1.753962   -3.469965 C.3        1 UNL1     0.0854
     37 C         -1.385317   1.309201   -2.002175 C.3        1 UNL1     0.0236
     38 C         -0.483224   1.966528   -0.8507 C.3        1 UNL1     0.1131
     39 C         1.093792   1.913192   -0.962261 C.3        1 UNL1     0.0200
     40 C         1.85998   0.51093   -1.440857 C.3        1 UNL1     0.0661
     41 C         1.588581   -1.037183   -0.802658 C.3        1 UNL1     0.0091
     42 C         1.674593   -2.685926   -1.60244 C.3        1 UNL1     0.0661
     43 C         -2.711299   -6.941633   -7.821948 C.2        1 UNL1     0.2131
     44 O         -3.494829   -7.466191   -8.59244 O.2        1 UNL1     -0.2851
     45 O         -2.847342   -5.554441   -10.255479 O.3        1 UNL1     -0.5056
     46 O         -0.292073   -2.771703   -4.963594 O.2        1 UNL1     -0.2836
     47 C         3.721161   -3.566254   -3.070226 C.3        1 UNL1     -0.0566
     48 O         2.479719   -3.296679   -0.517143 O.3        1 UNL1     -0.3909
     49 C         0.318704   -1.010795   0.018445 C.3        1 UNL1     -0.0577
     50 O         1.948387   0.443994   -2.849909 O.3        1 UNL1     -0.3910
     51 O         0.154143   2.526423   -3.604247 O.3        1 UNL1     -0.3753
     52 C         -1.848171   -0.183271   -1.94522 C.3        1 UNL1     -0.0564
     53 O         -1.061121   1.813402   0.525859 O.3        1 UNL1     -0.4608
     54 C         -2.234655   1.173954   0.82893 C.2        1 UNL1     0.3042
     55 O         -2.826382   0.336846   0.148527 O.2        1 UNL1     -0.2512
     56 C         -2.78454   1.534466   2.179624 C.3        1 UNL1     0.0332
     57 C         1.577546   3.288551   -1.619942 C.3        1 UNL1     -0.0567
     58 C         -2.671269   -0.87403   -6.226663 C.3        1 UNL1     0.0210
     59 C         1.199517   1.905033   -4.350527 C.3        1 UNL1     0.0372
     60 C         -0.915293   0.644124   -4.456362 C.2        1 UNL1     -0.0208
     61 C         0.001241   0.403352   -5.394838 C.2        1 UNL1     0.0882
     62 H         1.696316   -3.242605   -3.686321 H        1 UNL1     0.0365
     63 H         1.334192   -4.875733   -4.857639 H        1 UNL1     0.0576
     64 H         2.165088   -7.476466   -3.428451 H        1 UNL1     0.0615
     65 H         0.755923   -6.906268   -6.157368 H        1 UNL1     0.0622
     66 H         -1.869694   2.367706   -3.794151 H        1 UNL1     0.0645
     67 H         -2.362842   1.786454   -1.814465 H        1 UNL1     0.0362
     68 H         -0.749936   3.025295   -0.989976 H        1 UNL1     0.0741
     69 H         1.518212   2.093111   0.016466 H        1 UNL1     0.0359
     70 H         2.891969   0.734809   -1.109288 H        1 UNL1     0.0600
     71 H         2.360301   -1.056794   -0.008289 H        1 UNL1     0.0348
     72 H         2.247255   -2.005078   -2.24883 H        1 UNL1     0.0602
     73 H         -1.799786   0.05823   -4.415754 H        1 UNL1     0.0628
     74 H         0.959233   0.919245   -5.467939 H        1 UNL1     0.1022
     75 H         0.277572   -11.074559   -6.334842 H        1 UNL1     0.0279
     76 H         1.494556   -10.882127   -5.136835 H        1 UNL1     0.0279
     77 H         -0.265044   -10.713818   -4.748536 H        1 UNL1     0.0279
     78 H         -1.958948   -9.349626   -5.718928 H        1 UNL1     0.1553
     79 H         -1.607265   -8.384155   -4.024699 H        1 UNL1     0.1484
     80 H         -3.007023   -5.424082   -2.096451 H        1 UNL1     0.0317
     81 H         -3.693415   -5.978322   -3.616849 H        1 UNL1     0.0317
     82 H         -3.359967   -8.376505   -2.960168 H        1 UNL1     0.0428
     83 H         -4.33551   -7.489579   -1.809784 H        1 UNL1     0.0428
     84 H         -0.244481   -8.065552   -0.792498 H        1 UNL1     0.0428
     85 H         -0.77079   -8.76316   -2.284297 H        1 UNL1     0.0428
     86 H         0.434526   -6.582791   -2.418666 H        1 UNL1     0.0317
     87 H         -0.729447   -5.76817   -1.478501 H        1 UNL1     0.0317
     88 H         -1.906958   -9.262237   0.306312 H        1 UNL1     0.0429
     89 H         -3.565372   -8.661221   0.374721 H        1 UNL1     0.0429
     90 H         -2.355884   -10.493982   -1.786317 H        1 UNL1     0.0308
     91 H         -3.570644   -12.307688   -0.821173 H        1 UNL1     0.0233
     92 H         -2.972691   -11.432491   0.6113 H        1 UNL1     0.0233
     93 H         -4.640042   -11.262145   0.105807 H        1 UNL1     0.0233
     94 H         -4.305716   -10.437055   -2.988189 H        1 UNL1     0.0233
     95 H         -5.27642   -9.871035   -1.620095 H        1 UNL1     0.0233
     96 H         -4.181403   -8.747078   -2.457738 H        1 UNL1     0.0233
     97 H         -2.213864   -3.111571   -11.406916 H        1 UNL1     0.0280
     98 H         -3.525854   -2.40804   -10.500874 H        1 UNL1     0.0280
     99 H         -1.892983   -1.683973   -10.405004 H        1 UNL1     0.0280
     100 H         -3.782793   -5.562955   -10.357853 H        1 UNL1     0.2922
     101 H         4.032204   -3.643077   -4.111862 H        1 UNL1     0.0236
     102 H         4.337568   -4.178788   -2.413089 H        1 UNL1     0.0236
     103 H         3.953281   -2.52662   -2.78479 H        1 UNL1     0.0236
     104 H         2.022287   -3.11549   0.327189 H        1 UNL1     0.2098
     105 H         -0.487275   -1.621125   -0.381189 H        1 UNL1     0.0234
     106 H         0.458191   -1.216921   1.079568 H        1 UNL1     0.0234
     107 H         0.0   0.0   0.0 H        1 UNL1     0.0234
     108 H         1.440925   1.197412   -3.208534 H        1 UNL1     0.2098
     109 H         -1.144665   -0.815921   -1.386163 H        1 UNL1     0.0234
     110 H         -2.856496   -0.305838   -1.535339 H        1 UNL1     0.0234
     111 H         -1.913007   -0.625464   -2.948319 H        1 UNL1     0.0234
     112 H         -3.645814   2.199667   2.065351 H        1 UNL1     0.0342
     113 H         -3.046108   0.653449   2.763776 H        1 UNL1     0.0342
     114 H         -2.00763   2.081208   2.731574 H        1 UNL1     0.0342
     115 H         1.253905   3.377023   -2.666181 H        1 UNL1     0.0234
     116 H         1.23038   4.179188   -1.092408 H        1 UNL1     0.0234
     117 H         2.67326   3.362668   -1.728835 H        1 UNL1     0.0234
     118 H         -3.339506   -0.707288   -7.089601 H        1 UNL1     0.0309
     119 H         -3.133028   -1.601349   -5.551393 H        1 UNL1     0.0309
     120 H         -2.694615   0.086222   -5.699901 H        1 UNL1     0.0309
     121 H         1.144372   0.832664   -4.165213 H        1 UNL1     0.0524
     122 H         1.087651   2.060439   -5.436516 H        1 UNL1     0.0524
     123 H         2.165526   2.290436   -4.036862 H        1 UNL1     0.0524
@<TRIPOS>BOND
     1     1     2    1
     2     1    42    1
     3     2     3    2
     4     3     4    1
     5     4     5    2
     6     5     7    1
     7     6    75    1
     8     6    76    1
     9     6    77    1
    10     7     9   am
    11     9    10    1
    12    10    11    2
    13    10    43    1
    14    11    14    1
    15    11    15    1
    16    12    13   ar
    17    12    27   ar
    18    12    43    1
    19    13    14    1
    20    13    30   ar
    21    14    17    2
    22    15    16    1
    23    16    17    1
    24    16    18    1
    25    16    22    1
    26    18    19    1
    27    19    20    1
    28    20    21    1
    29    21    22    1
    30    23    24    1
    31    23    88    1
    32    23    89    1
    33    24    25    1
    34    24    26    1
    35    24    90    1
    36    25    91    1
    37    25    92    1
    38    25    93    1
    39    26    94    1
    40    26    95    1
    41    26    96    1
    42    27    28   ar
    43    28    29   ar
    44    29    30   ar
    45    29    31    1
    46    30    33    1
    47    31    32    1
    48    32    33    1
    49    32    35    1
    50    34    97    1
    51    34    98    1
    52    34    99    1
    53    35    61    1
    54    36    37    1
    55    36    60    1
    56    37    38    1
    57    38    39    1
    58    39    40    1
    59    40    41    1
    60    41    42    1
    61    45   100    1
    62    47   101    1
    63    47   102    1
    64    47   103    1
    65    48   104    1
    66    49   105    1
    67    49   106    1
    68    49   107    1
    69    50   108    1
    70    51    59    1
    71    52   109    1
    72    52   110    1
    73    52   111    1
    74    53    54    1
    75    54    55    2
    76    54    56    1
    77    56   112    1
    78    56   113    1
    79    56   114    1
    80    57   115    1
    81    57   116    1
    82    57   117    1
    83    58   118    1
    84    58   119    1
    85    58   120    1
    86    59   121    1
    87    59   122    1
    88    59   123    1
    89    60    61    2
    90     1    47    1
    91     1    62    1
    92     2    63    1
    93     3    64    1
    94     4    65    1
    95     5     6    1
    96     7     8    2
    97     9    78    1
    98    15    79    1
    99    18    80    1
   100    18    81    1
   101    19    82    1
   102    19    83    1
   103    20    23    1
   104    21    84    1
   105    21    85    1
   106    22    86    1
   107    22    87    1
   108    27    45    1
   109    28    34    1
   110    32    58    1
   111    33    46    2
   112    36    51    1
   113    36    66    1
   114    37    52    1
   115    37    67    1
   116    38    53    1
   117    38    68    1
   118    42    48    1
   119    42    72    1
   120    43    44    2
   121    60    73    1
   122    61    74    1
   123    39    69    1
   124    39    57    1
   125    40    70    1
   126    40    50    1
   127    41    71    1
   128    41    49    1
