@<TRIPOS>MOLECULE
*****
 123 128 0 0 0
SMALL
GASTEIGER

@<TRIPOS>ATOM
     1 C         5.172307   1.733759   0.490505 C.3        1 UNL1     0.0009
     2 C         6.611439   2.53504   -0.360307 C.2        1 UNL1     -0.0787
     3 C         7.893065   2.432611   -1.025882 C.2        1 UNL1     -0.0649
     4 C         8.774228   3.664628   -1.782217 C.2        1 UNL1     -0.0542
     5 C         9.795182   3.953627   -2.720945 C.2        1 UNL1     0.0115
     6 C         10.921576   3.324268   -3.586085 C.3        1 UNL1     -0.0348
     7 C         9.894966   5.436196   -3.328416 C.2        1 UNL1     0.2441
     8 O         10.721261   6.255641   -2.951224 O.2        1 UNL1     -0.2702
     9 N         9.145441   5.644623   -4.49928 N.am        1 UNL1     -0.2772
     10 C         7.863859   6.035317   -4.185867 C.2        1 UNL1     0.1049
     11 C         7.015172   5.066612   -3.893355 C.2        1 UNL1     0.0801
     12 C         6.57015   7.646743   -2.776272 C.ar        1 UNL1     0.0753
     13 C         5.807716   6.521381   -2.328096 C.ar        1 UNL1     0.0305
     14 C         5.920812   5.214915   -2.972618 C.2        1 UNL1     0.0924
     15 N         7.133855   3.737172   -4.051564 N.pl3        1 UNL1     -0.3170
     16 C         5.862201   3.141983   -3.737082 C.3        1 UNL1     0.1275
     17 N         5.228575   4.099746   -2.757832 N.2        1 UNL1     -0.2557
     18 C         5.009617   3.202757   -5.00085 C.3        1 UNL1     0.0016
     19 C         5.762538   2.515685   -6.12896 C.3        1 UNL1     0.0026
     20 N         6.02856   1.13704   -5.742178 N.3        1 UNL1     -0.3018
     21 C         6.791354   0.975193   -4.502695 C.3        1 UNL1     0.0026
     22 C         6.014588   1.668759   -3.382205 C.3        1 UNL1     0.0016
     23 C         6.470704   0.315458   -6.851301 C.3        1 UNL1     0.0012
     24 C         5.313466   0.065137   -7.831044 C.3        1 UNL1     -0.0339
     25 C         5.337699   1.06644   -8.997603 C.3        1 UNL1     -0.0615
     26 C         5.351141   -1.370384   -8.325654 C.3        1 UNL1     -0.0615
     27 C         6.36922   8.915393   -2.237504 C.ar        1 UNL1     0.1347
     28 C         5.410903   9.18842   -1.277746 C.ar        1 UNL1     0.0342
     29 C         4.705945   8.056362   -0.816615 C.ar        1 UNL1     0.1435
     30 C         4.921612   6.773356   -1.321198 C.ar        1 UNL1     0.0774
     31 O         3.66524   8.173582   0.036731 O.3        1 UNL1     -0.4436
     32 C         2.939912   6.942818   -0.104664 C.3        1 UNL1     0.3143
     33 C         3.950289   5.946356   -0.636093 C.2        1 UNL1     0.2504
     34 C         4.968097   10.556136   -0.838 C.3        1 UNL1     -0.0327
     35 O         2.577898   6.508061   1.21184 O.2        1 UNL1     -0.4528
     36 C         -0.670849   4.585254   0.816178 C.3        1 UNL1     0.0854
     37 C         -0.979843   3.324989   -0.080357 C.3        1 UNL1     0.0236
     38 C         -1.58419   2.066257   0.708378 C.3        1 UNL1     0.1131
     39 C         -0.86009   1.534032   2.010179 C.3        1 UNL1     0.0200
     40 C         0.80066   1.38358   2.051546 C.3        1 UNL1     0.0661
     41 C         1.75781   0.611128   0.883303 C.3        1 UNL1     0.0091
     42 C         3.4665   0.968235   0.319162 C.3        1 UNL1     0.0661
     43 C         7.519637   7.435474   -3.897031 C.2        1 UNL1     0.2131
     44 O         7.922228   8.331881   -4.616135 O.2        1 UNL1     -0.2851
     45 O         7.184586   9.947778   -2.696634 O.3        1 UNL1     -0.5056
     46 O         3.962695   4.742867   -0.504512 O.2        1 UNL1     -0.2836
     47 C         5.567308   1.304067   1.929018 C.3        1 UNL1     -0.0566
     48 O         3.910864   -0.444142   0.401917 O.3        1 UNL1     -0.3909
     49 C         0.923006   0.380188   -0.356561 C.3        1 UNL1     -0.0577
     50 O         1.404453   2.599916   2.443572 O.3        1 UNL1     -0.3910
     51 O         -0.795579   4.396881   2.20772 O.3        1 UNL1     -0.3753
     52 C         0.064195   3.160642   -1.232713 C.3        1 UNL1     -0.0564
     53 O         -2.189827   1.028466   -0.190799 O.3        1 UNL1     -0.4608
     54 C         -2.416045   -0.280633   0.145379 C.2        1 UNL1     0.3042
     55 O         -1.846869   -1.275623   -0.301691 O.2        1 UNL1     -0.2512
     56 C         -3.445912   -0.45495   1.225056 C.3        1 UNL1     0.0332
     57 C         -1.579196   2.206013   3.270935 C.3        1 UNL1     -0.0567
     58 C         1.86551   7.190376   -1.189056 C.3        1 UNL1     0.0210
     59 C         -1.136251   5.571032   2.943368 C.3        1 UNL1     0.0372
     60 C         0.660024   5.210229   0.585214 C.2        1 UNL1     -0.0208
     61 C         1.574202   5.643331   1.454378 C.2        1 UNL1     0.0882
     62 H         4.69931   2.719401   0.577084 H        1 UNL1     0.0365
     63 H         6.348321   3.589697   -0.255728 H        1 UNL1     0.0576
     64 H         8.347854   1.464256   -1.246253 H        1 UNL1     0.0615
     65 H         8.289852   4.581702   -1.436042 H        1 UNL1     0.0622
     66 H         -1.41326   5.333784   0.505411 H        1 UNL1     0.0645
     67 H         -1.844436   3.636514   -0.691906 H        1 UNL1     0.0362
     68 H         -2.529975   2.506185   1.05977 H        1 UNL1     0.0741
     69 H         -1.194628   0.524057   2.206246 H        1 UNL1     0.0359
     70 H         0.910426   0.723516   2.933207 H        1 UNL1     0.0600
     71 H         1.798334   -0.409874   1.310938 H        1 UNL1     0.0348
     72 H         3.362022   1.457416   1.2985 H        1 UNL1     0.0602
     73 H         0.778558   5.406425   -0.451466 H        1 UNL1     0.0628
     74 H         1.555977   5.433445   2.524356 H        1 UNL1     0.1022
     75 H         10.962761   2.218966   -3.432317 H        1 UNL1     0.0279
     76 H         10.808243   3.406664   -4.664712 H        1 UNL1     0.0279
     77 H         11.927536   3.626202   -3.25962 H        1 UNL1     0.0279
     78 H         9.080879   4.774507   -5.0235 H        1 UNL1     0.1553
     79 H         7.79788   3.306785   -4.668631 H        1 UNL1     0.1484
     80 H         4.046869   2.714817   -4.80643 H        1 UNL1     0.0317
     81 H         4.786107   4.239995   -5.272568 H        1 UNL1     0.0317
     82 H         6.694789   3.044047   -6.377259 H        1 UNL1     0.0428
     83 H         5.137595   2.572082   -7.020765 H        1 UNL1     0.0428
     84 H         6.908555   -0.067902   -4.192811 H        1 UNL1     0.0428
     85 H         7.822542   1.340089   -4.606711 H        1 UNL1     0.0428
     86 H         6.53022   1.417478   -2.473927 H        1 UNL1     0.0317
     87 H         5.03372   1.194123   -3.25684 H        1 UNL1     0.0317
     88 H         7.266215   0.8559   -7.38081 H        1 UNL1     0.0429
     89 H         6.9033   -0.630017   -6.499573 H        1 UNL1     0.0429
     90 H         4.361571   0.173305   -7.297744 H        1 UNL1     0.0308
     91 H         6.285672   1.020059   -9.541936 H        1 UNL1     0.0233
     92 H         4.516126   0.87173   -9.690939 H        1 UNL1     0.0233
     93 H         5.214565   2.102937   -8.660933 H        1 UNL1     0.0233
     94 H         4.65337   -1.500879   -9.159875 H        1 UNL1     0.0233
     95 H         6.354755   -1.615868   -8.684064 H        1 UNL1     0.0233
     96 H         5.077666   -2.072768   -7.533292 H        1 UNL1     0.0233
     97 H         4.174578   10.509222   -0.098164 H        1 UNL1     0.0280
     98 H         5.782517   11.124079   -0.369583 H        1 UNL1     0.0280
     99 H         4.59614   11.121183   -1.708325 H        1 UNL1     0.0280
     100 H         6.719799   10.699291   -3.020399 H        1 UNL1     0.2922
     101 H         4.703186   0.873341   2.434413 H        1 UNL1     0.0236
     102 H         6.020454   2.108464   2.507453 H        1 UNL1     0.0236
     103 H         6.321168   0.499151   1.928505 H        1 UNL1     0.0236
     104 H         4.329981   -0.570779   1.275573 H        1 UNL1     0.2098
     105 H         0.713059   1.279255   -0.930507 H        1 UNL1     0.0234
     106 H         1.290081   -0.409378   -1.012128 H        1 UNL1     0.0234
     107 H         0.0   -0.0   0.0 H        1 UNL1     0.0234
     108 H         1.205502   3.25902   1.750918 H        1 UNL1     0.2098
     109 H         1.088671   3.044382   -0.85239 H        1 UNL1     0.0234
     110 H         -0.170673   2.333771   -1.911582 H        1 UNL1     0.0234
     111 H         0.088041   4.04294   -1.88611 H        1 UNL1     0.0234
     112 H         -3.574439   -1.518372   1.448575 H        1 UNL1     0.0342
     113 H         -3.195467   0.105821   2.124309 H        1 UNL1     0.0342
     114 H         -4.404689   -0.071409   0.849812 H        1 UNL1     0.0342
     115 H         -2.644153   1.940785   3.322984 H        1 UNL1     0.0234
     116 H         -1.128474   1.944788   4.230445 H        1 UNL1     0.0234
     117 H         -1.636391   3.30644   3.209872 H        1 UNL1     0.0234
     118 H         0.965868   7.68024   -0.777129 H        1 UNL1     0.0309
     119 H         2.236663   7.776676   -2.035637 H        1 UNL1     0.0309
     120 H         1.474191   6.259283   -1.613369 H        1 UNL1     0.0309
     121 H         -0.331357   6.292275   2.804404 H        1 UNL1     0.0524
     122 H         -2.066668   6.037653   2.579189 H        1 UNL1     0.0524
     123 H         -1.249655   5.334397   3.99752 H        1 UNL1     0.0524
@<TRIPOS>BOND
     1     1     2    1
     2     1    42    1
     3     2     3    2
     4     3     4    1
     5     4     5    2
     6     5     7    1
     7     6    75    1
     8     6    76    1
     9     6    77    1
    10     7     9   am
    11     9    10    1
    12    10    11    2
    13    10    43    1
    14    11    14    1
    15    11    15    1
    16    12    13   ar
    17    12    27   ar
    18    12    43    1
    19    13    14    1
    20    13    30   ar
    21    14    17    2
    22    15    16    1
    23    16    17    1
    24    16    18    1
    25    16    22    1
    26    18    19    1
    27    19    20    1
    28    20    21    1
    29    21    22    1
    30    23    24    1
    31    23    88    1
    32    23    89    1
    33    24    25    1
    34    24    26    1
    35    24    90    1
    36    25    91    1
    37    25    92    1
    38    25    93    1
    39    26    94    1
    40    26    95    1
    41    26    96    1
    42    27    28   ar
    43    28    29   ar
    44    29    30   ar
    45    29    31    1
    46    30    33    1
    47    31    32    1
    48    32    33    1
    49    32    35    1
    50    34    97    1
    51    34    98    1
    52    34    99    1
    53    35    61    1
    54    36    37    1
    55    36    60    1
    56    37    38    1
    57    38    39    1
    58    39    40    1
    59    40    41    1
    60    41    42    1
    61    45   100    1
    62    47   101    1
    63    47   102    1
    64    47   103    1
    65    48   104    1
    66    49   105    1
    67    49   106    1
    68    49   107    1
    69    50   108    1
    70    51    59    1
    71    52   109    1
    72    52   110    1
    73    52   111    1
    74    53    54    1
    75    54    55    2
    76    54    56    1
    77    56   112    1
    78    56   113    1
    79    56   114    1
    80    57   115    1
    81    57   116    1
    82    57   117    1
    83    58   118    1
    84    58   119    1
    85    58   120    1
    86    59   121    1
    87    59   122    1
    88    59   123    1
    89    60    61    2
    90     1    47    1
    91     1    62    1
    92     2    63    1
    93     3    64    1
    94     4    65    1
    95     5     6    1
    96     7     8    2
    97     9    78    1
    98    15    79    1
    99    18    80    1
   100    18    81    1
   101    19    82    1
   102    19    83    1
   103    20    23    1
   104    21    84    1
   105    21    85    1
   106    22    86    1
   107    22    87    1
   108    27    45    1
   109    28    34    1
   110    32    58    1
   111    33    46    2
   112    36    51    1
   113    36    66    1
   114    37    52    1
   115    37    67    1
   116    38    53    1
   117    38    68    1
   118    42    48    1
   119    42    72    1
   120    43    44    2
   121    60    73    1
   122    61    74    1
   123    39    69    1
   124    39    57    1
   125    40    70    1
   126    40    50    1
   127    41    71    1
   128    41    49    1
