@<TRIPOS>MOLECULE
*****
 123 128 0 0 0
SMALL
GASTEIGER

@<TRIPOS>ATOM
     1 C         -2.760198   2.035432   2.417386 C.3        1 UNL1     0.0009
     2 C         -4.212695   3.04506   1.862463 C.2        1 UNL1     -0.0787
     3 C         -4.82966   4.33294   1.624207 C.2        1 UNL1     -0.0649
     4 C         -6.331268   4.651211   0.909899 C.2        1 UNL1     -0.0542
     5 C         -7.124111   5.629422   0.260605 C.2        1 UNL1     0.0115
     6 C         -7.213695   7.138078   -0.098915 C.3        1 UNL1     -0.0348
     7 C         -8.401734   5.155692   -0.58807 C.2        1 UNL1     0.2441
     8 O         -9.548245   5.245779   -0.17103 O.2        1 UNL1     -0.2702
     9 N         -8.139231   4.873967   -1.940059 N.am        1 UNL1     -0.2772
     10 C         -7.75615   3.561082   -2.091402 C.2        1 UNL1     0.1049
     11 C         -6.483935   3.295247   -1.856832 C.2        1 UNL1     0.0801
     12 C         -8.398293   1.223633   -1.473892 C.ar        1 UNL1     0.0753
     13 C         -7.046382   1.051333   -1.036562 C.ar        1 UNL1     0.0305
     14 C         -6.013341   2.040338   -1.336141 C.2        1 UNL1     0.0924
     15 N         -5.442735   4.129619   -1.694803 N.pl3        1 UNL1     -0.3170
     16 C         -4.246   3.332892   -1.637307 C.3        1 UNL1     0.1275
     17 N         -4.705186   1.999612   -1.0995 N.2        1 UNL1     -0.2557
     18 C         -3.801998   3.079496   -3.074789 C.3        1 UNL1     0.0016
     19 C         -3.631688   4.418573   -3.774402 C.3        1 UNL1     0.0026
     20 N         -2.640313   5.201966   -3.050179 N.3        1 UNL1     -0.3018
     21 C         -2.950003   5.445911   -1.639877 C.3        1 UNL1     0.0026
     22 C         -3.112325   4.087534   -0.955511 C.3        1 UNL1     0.0016
     23 C         -2.1857   6.361014   -3.792189 C.3        1 UNL1     0.0012
     24 C         -1.321944   5.930178   -4.98804 C.3        1 UNL1     -0.0339
     25 C         -2.031622   6.207983   -6.32342 C.3        1 UNL1     -0.0615
     26 C         0.034005   6.611349   -4.923315 C.3        1 UNL1     -0.0615
     27 C         -9.349362   0.222683   -1.290358 C.ar        1 UNL1     0.1347
     28 C         -9.058692   -1.004026   -0.720492 C.ar        1 UNL1     0.0342
     29 C         -7.733391   -1.132522   -0.25334 C.ar        1 UNL1     0.1435
     30 C         -6.779141   -0.124661   -0.397708 C.ar        1 UNL1     0.0774
     31 O         -7.265726   -2.305799   0.225946 O.3        1 UNL1     -0.4436
     32 C         -5.837387   -2.187586   0.143814 C.3        1 UNL1     0.3143
     33 C         -5.562783   -0.697354   0.140123 C.2        1 UNL1     0.2504
     34 C         -9.955962   -2.210261   -0.718858 C.3        1 UNL1     -0.0327
     35 O         -5.29598   -2.708545   1.36395 O.2        1 UNL1     -0.4528
     36 C         -1.885103   -4.11512   0.472014 C.3        1 UNL1     0.0854
     37 C         -0.651648   -3.39115   -0.192801 C.3        1 UNL1     0.0236
     38 C         0.717683   -3.490773   0.635905 C.3        1 UNL1     0.1131
     39 C         0.736265   -3.107811   2.170593 C.3        1 UNL1     0.0200
     40 C         -0.063023   -1.747349   2.711629 C.3        1 UNL1     0.0661
     41 C         0.065295   -0.190571   2.050126 C.3        1 UNL1     0.0091
     42 C         -1.172656   1.158138   1.932383 C.3        1 UNL1     0.0661
     43 C         -8.732777   2.468136   -2.209821 C.2        1 UNL1     0.2131
     44 O         -9.689957   2.572671   -2.955218 O.2        1 UNL1     -0.2851
     45 O         -10.653277   0.488162   -1.703595 O.3        1 UNL1     -0.5056
     46 O         -4.571793   -0.112814   0.517093 O.2        1 UNL1     -0.2836
     47 C         -2.645981   2.060364   3.96539 C.3        1 UNL1     -0.0566
     48 O         -0.247548   2.20507   2.429599 O.3        1 UNL1     -0.3909
     49 C         0.741415   -0.287932   0.700728 C.3        1 UNL1     -0.0577
     50 O         -1.415813   -2.041111   2.996912 O.3        1 UNL1     -0.3910
     51 O         -1.681596   -4.604228   1.778455 O.3        1 UNL1     -0.3753
     52 C         -1.077199   -2.085898   -0.941249 C.3        1 UNL1     -0.0564
     53 O         1.9313   -3.112418   -0.161782 O.3        1 UNL1     -0.4608
     54 C         3.142484   -2.741372   0.360988 C.2        1 UNL1     0.3042
     55 O         3.599223   -1.602563   0.452314 O.2        1 UNL1     -0.2512
     56 C         3.933596   -3.889742   0.91965 C.3        1 UNL1     0.0332
     57 C         0.557554   -4.459285   3.007106 C.3        1 UNL1     -0.0567
     58 C         -5.428108   -2.773674   -1.227507 C.3        1 UNL1     0.0210
     59 C         -1.58561   -6.024304   1.878646 C.3        1 UNL1     0.0372
     60 C         -3.140866   -3.316846   0.503301 C.2        1 UNL1     -0.0208
     61 C         -4.023148   -3.131571   1.486152 C.2        1 UNL1     0.0882
     62 H         -3.317523   1.126863   2.159309 H        1 UNL1     0.0365
     63 H         -4.944381   2.258505   1.666411 H        1 UNL1     0.0576
     64 H         -4.274421   5.265368   1.748281 H        1 UNL1     0.0615
     65 H         -6.829465   3.677936   0.905864 H        1 UNL1     0.0622
     66 H         -2.089177   -4.972188   -0.185127 H        1 UNL1     0.0645
     67 H         -0.419815   -4.01247   -1.075282 H        1 UNL1     0.0362
     68 H         0.872487   -4.580089   0.605116 H        1 UNL1     0.0741
     69 H         1.758377   -2.91682   2.469285 H        1 UNL1     0.0359
     70 H         0.410208   -1.630717   3.705364 H        1 UNL1     0.0600
     71 H         0.884251   0.217748   2.674261 H        1 UNL1     0.0348
     72 H         -1.536776   0.480007   2.717794 H        1 UNL1     0.0602
     73 H         -3.353135   -2.961287   -0.474333 H        1 UNL1     0.0628
     74 H         -3.855825   -3.413404   2.526253 H        1 UNL1     0.1022
     75 H         -6.284935   7.672009   0.216294 H        1 UNL1     0.0279
     76 H         -7.276298   7.381737   -1.157111 H        1 UNL1     0.0279
     77 H         -7.978541   7.669901   0.485787 H        1 UNL1     0.0279
     78 H         -7.371892   5.456739   -2.268153 H        1 UNL1     0.1553
     79 H         -5.444491   5.087242   -1.994615 H        1 UNL1     0.1484
     80 H         -2.864248   2.510917   -3.064374 H        1 UNL1     0.0317
     81 H         -4.535185   2.465075   -3.608243 H        1 UNL1     0.0317
     82 H         -4.585198   4.961399   -3.85231 H        1 UNL1     0.0428
     83 H         -3.316637   4.214587   -4.79821 H        1 UNL1     0.0428
     84 H         -2.15344   5.9669   -1.099628 H        1 UNL1     0.0428
     85 H         -3.825031   6.099694   -1.520664 H        1 UNL1     0.0428
     86 H         -3.204914   4.300914   0.093243 H        1 UNL1     0.0317
     87 H         -2.174442   3.522193   -1.017645 H        1 UNL1     0.0317
     88 H         -3.068779   6.891336   -4.17196 H        1 UNL1     0.0429
     89 H         -1.643641   7.061833   -3.144269 H        1 UNL1     0.0429
     90 H         -1.120585   4.854732   -4.916735 H        1 UNL1     0.0308
     91 H         -2.46661   7.211759   -6.341371 H        1 UNL1     0.0233
     92 H         -1.336189   6.103482   -7.159519 H        1 UNL1     0.0233
     93 H         -2.849617   5.503303   -6.516151 H        1 UNL1     0.0233
     94 H         0.493686   6.63291   -5.917329 H        1 UNL1     0.0233
     95 H         -0.082573   7.644201   -4.583333 H        1 UNL1     0.0233
     96 H         0.710636   6.089348   -4.240926 H        1 UNL1     0.0233
     97 H         -9.489391   -3.065794   -1.198028 H        1 UNL1     0.0280
     98 H         -10.208899   -2.536503   0.298416 H        1 UNL1     0.0280
     99 H         -10.888206   -1.977484   -1.259072 H        1 UNL1     0.0280
     100 H         -10.830385   0.273746   -2.602639 H        1 UNL1     0.2922
     101 H         -2.045943   1.21577   4.303431 H        1 UNL1     0.0236
     102 H         -3.612805   2.101547   4.465929 H        1 UNL1     0.0236
     103 H         -2.104487   2.950668   4.326409 H        1 UNL1     0.0236
     104 H         -0.325908   2.229635   3.403368 H        1 UNL1     0.2098
     105 H         1.592894   0.376337   0.576063 H        1 UNL1     0.0234
     106 H         1.004347   -1.300558   0.395143 H        1 UNL1     0.0234
     107 H         0.0   0.0   -0.0 H        1 UNL1     0.0234
     108 H         -1.877666   -2.140144   2.14213 H        1 UNL1     0.2098
     109 H         -1.789394   -2.285805   -1.753977 H        1 UNL1     0.0234
     110 H         -1.488574   -1.321434   -0.273336 H        1 UNL1     0.0234
     111 H         -0.217831   -1.591906   -1.413906 H        1 UNL1     0.0234
     112 H         4.979898   -3.806214   0.610422 H        1 UNL1     0.0342
     113 H         3.850547   -3.955442   2.003453 H        1 UNL1     0.0342
     114 H         3.531092   -4.821022   0.4979 H        1 UNL1     0.0342
     115 H         1.284832   -5.22557   2.705341 H        1 UNL1     0.0234
     116 H         0.647917   -4.328068   4.087229 H        1 UNL1     0.0234
     117 H         -0.395152   -4.978622   2.805654 H        1 UNL1     0.0234
     118 H         -4.880708   -3.726932   -1.124267 H        1 UNL1     0.0309
     119 H         -6.276988   -2.919482   -1.903041 H        1 UNL1     0.0309
     120 H         -4.72011   -2.132713   -1.764178 H        1 UNL1     0.0309
     121 H         -1.890614   -6.305083   2.886362 H        1 UNL1     0.0524
     122 H         -2.257695   -6.539905   1.172604 H        1 UNL1     0.0524
     123 H         -0.564845   -6.34607   1.692635 H        1 UNL1     0.0524
@<TRIPOS>BOND
     1     1     2    1
     2     1    42    1
     3     2     3    2
     4     3     4    1
     5     4     5    2
     6     5     7    1
     7     6    75    1
     8     6    76    1
     9     6    77    1
    10     7     9   am
    11     9    10    1
    12    10    11    2
    13    10    43    1
    14    11    14    1
    15    11    15    1
    16    12    13   ar
    17    12    27   ar
    18    12    43    1
    19    13    14    1
    20    13    30   ar
    21    14    17    2
    22    15    16    1
    23    16    17    1
    24    16    18    1
    25    16    22    1
    26    18    19    1
    27    19    20    1
    28    20    21    1
    29    21    22    1
    30    23    24    1
    31    23    88    1
    32    23    89    1
    33    24    25    1
    34    24    26    1
    35    24    90    1
    36    25    91    1
    37    25    92    1
    38    25    93    1
    39    26    94    1
    40    26    95    1
    41    26    96    1
    42    27    28   ar
    43    28    29   ar
    44    29    30   ar
    45    29    31    1
    46    30    33    1
    47    31    32    1
    48    32    33    1
    49    32    35    1
    50    34    97    1
    51    34    98    1
    52    34    99    1
    53    35    61    1
    54    36    37    1
    55    36    60    1
    56    37    38    1
    57    38    39    1
    58    39    40    1
    59    40    41    1
    60    41    42    1
    61    45   100    1
    62    47   101    1
    63    47   102    1
    64    47   103    1
    65    48   104    1
    66    49   105    1
    67    49   106    1
    68    49   107    1
    69    50   108    1
    70    51    59    1
    71    52   109    1
    72    52   110    1
    73    52   111    1
    74    53    54    1
    75    54    55    2
    76    54    56    1
    77    56   112    1
    78    56   113    1
    79    56   114    1
    80    57   115    1
    81    57   116    1
    82    57   117    1
    83    58   118    1
    84    58   119    1
    85    58   120    1
    86    59   121    1
    87    59   122    1
    88    59   123    1
    89    60    61    2
    90     1    47    1
    91     1    62    1
    92     2    63    1
    93     3    64    1
    94     4    65    1
    95     5     6    1
    96     7     8    2
    97     9    78    1
    98    15    79    1
    99    18    80    1
   100    18    81    1
   101    19    82    1
   102    19    83    1
   103    20    23    1
   104    21    84    1
   105    21    85    1
   106    22    86    1
   107    22    87    1
   108    27    45    1
   109    28    34    1
   110    32    58    1
   111    33    46    2
   112    36    51    1
   113    36    66    1
   114    37    52    1
   115    37    67    1
   116    38    53    1
   117    38    68    1
   118    42    48    1
   119    42    72    1
   120    43    44    2
   121    60    73    1
   122    61    74    1
   123    39    69    1
   124    39    57    1
   125    40    70    1
   126    40    50    1
   127    41    71    1
   128    41    49    1
