@<TRIPOS>MOLECULE
*****
 123 128 0 0 0
SMALL
GASTEIGER

@<TRIPOS>ATOM
     1 C         -4.008575   0.643205   -1.041005 C.3        1 UNL1     0.0009
     2 C         -5.075348   -0.421336   -2.120719 C.2        1 UNL1     -0.0787
     3 C         -5.716706   -0.675012   -3.393651 C.2        1 UNL1     -0.0649
     4 C         -6.580147   -2.052001   -3.867706 C.2        1 UNL1     -0.0542
     5 C         -7.061615   -2.79741   -4.972076 C.2        1 UNL1     0.0115
     6 C         -7.263515   -2.773486   -6.512202 C.3        1 UNL1     -0.0348
     7 C         -7.49616   -4.326333   -4.747237 C.2        1 UNL1     0.2441
     8 O         -8.663816   -4.679894   -4.65724 O.2        1 UNL1     -0.2702
     9 N         -6.463342   -5.26391   -4.921561 N.am        1 UNL1     -0.2772
     10 C         -5.783206   -5.454239   -3.740667 C.2        1 UNL1     0.1049
     11 C         -4.843732   -4.569168   -3.460916 C.2        1 UNL1     0.0801
     12 C         -6.126236   -5.916845   -1.306399 C.ar        1 UNL1     0.0753
     13 C         -5.258182   -4.80729   -1.053455 C.ar        1 UNL1     0.0305
     14 C         -4.485295   -4.180949   -2.123686 C.2        1 UNL1     0.0924
     15 N         -4.290243   -3.622182   -4.237701 N.pl3        1 UNL1     -0.3170
     16 C         -3.193897   -3.041522   -3.508925 C.3        1 UNL1     0.1275
     17 N         -3.568075   -3.220069   -2.057776 N.2        1 UNL1     -0.2557
     18 C         -1.974667   -3.928031   -3.744044 C.3        1 UNL1     0.0016
     19 C         -1.740616   -4.045908   -5.241681 C.3        1 UNL1     0.0026
     20 N         -1.532242   -2.71245   -5.788945 N.3        1 UNL1     -0.3018
     21 C         -2.627138   -1.767746   -5.558496 C.3        1 UNL1     0.0026
     22 C         -2.841977   -1.661168   -4.047742 C.3        1 UNL1     0.0016
     23 C         -1.008202   -2.732946   -7.140095 C.3        1 UNL1     0.0012
     24 C         -2.154082   -2.684595   -8.163021 C.3        1 UNL1     -0.0339
     25 C         -3.275077   -1.736038   -7.707318 C.3        1 UNL1     -0.0615
     26 C         -1.616095   -2.298279   -9.529809 C.3        1 UNL1     -0.0615
     27 C         -6.76585   -6.584907   -0.264907 C.ar        1 UNL1     0.1347
     28 C         -6.584595   -6.261293   1.067936 C.ar        1 UNL1     0.0342
     29 C         -5.764198   -5.134862   1.289894 C.ar        1 UNL1     0.1435
     30 C         -5.14564   -4.433415   0.25424 C.ar        1 UNL1     0.0774
     31 O         -5.402793   -4.760919   2.536714 O.3        1 UNL1     -0.4436
     32 C         -4.245403   -3.933312   2.345955 C.3        1 UNL1     0.3143
     33 C         -4.353722   -3.422559   0.923419 C.2        1 UNL1     0.2504
     34 C         -7.033579   -7.083394   2.243803 C.3        1 UNL1     -0.0327
     35 O         -4.386655   -2.798012   3.208737 O.2        1 UNL1     -0.4528
     36 C         -0.857948   -1.746041   4.130514 C.3        1 UNL1     0.0854
     37 C         0.338771   -1.338858   3.187334 C.3        1 UNL1     0.0236
     38 C         0.984175   0.096448   3.495709 C.3        1 UNL1     0.1131
     39 C         0.049881   1.36664   3.622114 C.3        1 UNL1     0.0200
     40 C         -1.191663   1.613703   2.535852 C.3        1 UNL1     0.0661
     41 C         -1.060583   1.550307   0.84576 C.3        1 UNL1     0.0091
     42 C         -2.27768   1.027638   -0.423449 C.3        1 UNL1     0.0661
     43 C         -6.252757   -6.389327   -2.707474 C.2        1 UNL1     0.2131
     44 O         -6.618028   -7.511085   -3.009092 O.2        1 UNL1     -0.2851
     45 O         -7.629836   -7.625371   -0.60017 O.3        1 UNL1     -0.5056
     46 O         -3.906131   -2.400381   0.453666 O.2        1 UNL1     -0.2836
     47 C         -4.795176   1.897761   -0.574819 C.3        1 UNL1     -0.0566
     48 O         -2.052374   2.209562   -1.290287 O.3        1 UNL1     -0.3909
     49 C         0.259385   0.90752   0.482438 C.3        1 UNL1     -0.0577
     50 O         -2.364582   0.945585   2.954902 O.3        1 UNL1     -0.3910
     51 O         -1.323882   -0.741602   5.003119 O.3        1 UNL1     -0.3753
     52 C         0.133384   -1.861704   1.728089 C.3        1 UNL1     -0.0564
     53 O         2.316261   0.309742   2.838155 O.3        1 UNL1     -0.4608
     54 C         2.768221   -0.349645   1.725109 C.2        1 UNL1     0.3042
     55 O         3.922014   -0.701376   1.482447 O.2        1 UNL1     -0.2512
     56 C         1.679372   -0.705079   0.753107 C.3        1 UNL1     0.0332
     57 C         -0.26524   1.580885   5.175489 C.3        1 UNL1     -0.0567
     58 C         -3.017632   -4.867998   2.448287 C.3        1 UNL1     0.0210
     59 C         -0.657717   0.514306   4.881533 C.3        1 UNL1     0.0372
     60 C         -2.051647   -2.294325   3.430779 C.2        1 UNL1     -0.0208
     61 C         -3.348683   -2.034884   3.601466 C.2        1 UNL1     0.0882
     62 H         -4.10632   -0.102067   -0.242427 H        1 UNL1     0.0365
     63 H         -5.373797   -1.19617   -1.411473 H        1 UNL1     0.0576
     64 H         -5.550402   -0.027558   -4.257511 H        1 UNL1     0.0615
     65 H         -6.759638   -2.583053   -2.928957 H        1 UNL1     0.0622
     66 H         -0.461008   -2.57009   4.739962 H        1 UNL1     0.0645
     67 H         1.157664   -2.016377   3.485566 H        1 UNL1     0.0362
     68 H         1.365287   -0.087701   4.511762 H        1 UNL1     0.0741
     69 H         0.653241   2.256129   3.498924 H        1 UNL1     0.0359
     70 H         -1.400434   2.684058   2.725097 H        1 UNL1     0.0600
     71 H         -0.850289   2.615839   0.6281 H        1 UNL1     0.0348
     72 H         -2.860304   1.248078   0.482791 H        1 UNL1     0.0602
     73 H         -1.748429   -3.084628   2.789898 H        1 UNL1     0.0628
     74 H         -3.739154   -1.206916   4.194119 H        1 UNL1     0.1022
     75 H         -8.093415   -3.458999   -6.809473 H        1 UNL1     0.0279
     76 H         -7.575524   -1.826066   -6.945925 H        1 UNL1     0.0279
     77 H         -6.415112   -3.210233   -7.059161 H        1 UNL1     0.0279
     78 H         -5.796246   -4.914554   -5.606405 H        1 UNL1     0.1553
     79 H         -4.334187   -3.628286   -5.24018 H        1 UNL1     0.1484
     80 H         -1.108371   -3.486428   -3.236811 H        1 UNL1     0.0317
     81 H         -2.122249   -4.920746   -3.305425 H        1 UNL1     0.0317
     82 H         -2.575753   -4.554477   -5.745484 H        1 UNL1     0.0428
     83 H         -0.867999   -4.683498   -5.386829 H        1 UNL1     0.0428
     84 H         -2.412294   -0.753379   -5.908801 H        1 UNL1     0.0428
     85 H         -3.535329   -2.052798   -6.107359 H        1 UNL1     0.0428
     86 H         -3.553601   -0.868024   -3.911721 H        1 UNL1     0.0317
     87 H         -1.935422   -1.274019   -3.566733 H        1 UNL1     0.0317
     88 H         -0.380241   -1.842789   -7.276402 H        1 UNL1     0.0429
     89 H         -0.366292   -3.607779   -7.305605 H        1 UNL1     0.0429
     90 H         -2.573978   -3.690704   -8.279836 H        1 UNL1     0.0308
     91 H         -4.12157   -1.758871   -8.40016 H        1 UNL1     0.0233
     92 H         -3.623401   -2.00228   -6.706621 H        1 UNL1     0.0233
     93 H         -2.94105   -0.693122   -7.647422 H        1 UNL1     0.0233
     94 H         -0.665674   -1.764024   -9.424415 H        1 UNL1     0.0233
     95 H         -1.433712   -3.196102   -10.12698 H        1 UNL1     0.0233
     96 H         -2.317263   -1.653465   -10.066975 H        1 UNL1     0.0233
     97 H         -8.087868   -7.336859   2.184967 H        1 UNL1     0.0280
     98 H         -6.497835   -8.039416   2.309059 H        1 UNL1     0.0280
     99 H         -6.865537   -6.518044   3.175058 H        1 UNL1     0.0280
     100 H         -8.54348   -7.423305   -0.499938 H        1 UNL1     0.2922
     101 H         -4.137052   2.553792   -0.005474 H        1 UNL1     0.0236
     102 H         -5.704352   1.654232   -0.026114 H        1 UNL1     0.0236
     103 H         -5.135982   2.51235   -1.424716 H        1 UNL1     0.0236
     104 H         -2.031891   2.998451   -0.713914 H        1 UNL1     0.2098
     105 H         0.867329   1.488592   -0.206453 H        1 UNL1     0.0234
     106 H         0.857945   0.583947   1.333881 H        1 UNL1     0.0234
     107 H         0.0   -0.0   0.0 H        1 UNL1     0.0234
     108 H         -2.563658   1.249867   3.861295 H        1 UNL1     0.2098
     109 H         0.034784   -2.955502   1.688142 H        1 UNL1     0.0234
     110 H         -0.719601   -1.398145   1.220869 H        1 UNL1     0.0234
     111 H         0.990034   -1.616844   1.086108 H        1 UNL1     0.0234
     112 H         0.700959   -0.562953   1.221994 H        1 UNL1     0.0342
     113 H         1.755234   -0.13671   -0.17266 H        1 UNL1     0.0342
     114 H         1.779858   -1.769379   0.499467 H        1 UNL1     0.0342
     115 H         -1.345529   1.627347   5.370441 H        1 UNL1     0.0234
     116 H         0.152504   0.808172   5.823912 H        1 UNL1     0.0234
     117 H         0.063025   2.561981   5.559723 H        1 UNL1     0.0234
     118 H         -3.264584   -5.824325   2.941703 H        1 UNL1     0.0309
     119 H         -2.553   -5.074627   1.478945 H        1 UNL1     0.0309
     120 H         -2.225766   -4.45393   3.082008 H        1 UNL1     0.0309
     121 H         -0.524539   0.915459   5.885872 H        1 UNL1     0.0524
     122 H         0.342685   0.415101   4.428333 H        1 UNL1     0.0524
     123 H         -1.250856   1.19774   4.280535 H        1 UNL1     0.0524
@<TRIPOS>BOND
     1     1     2    1
     2     1    42    1
     3     2     3    2
     4     3     4    1
     5     4     5    2
     6     5     7    1
     7     6    75    1
     8     6    76    1
     9     6    77    1
    10     7     9   am
    11     9    10    1
    12    10    11    2
    13    10    43    1
    14    11    14    1
    15    11    15    1
    16    12    13   ar
    17    12    27   ar
    18    12    43    1
    19    13    14    1
    20    13    30   ar
    21    14    17    2
    22    15    16    1
    23    16    17    1
    24    16    18    1
    25    16    22    1
    26    18    19    1
    27    19    20    1
    28    20    21    1
    29    21    22    1
    30    23    24    1
    31    23    88    1
    32    23    89    1
    33    24    25    1
    34    24    26    1
    35    24    90    1
    36    25    91    1
    37    25    92    1
    38    25    93    1
    39    26    94    1
    40    26    95    1
    41    26    96    1
    42    27    28   ar
    43    28    29   ar
    44    29    30   ar
    45    29    31    1
    46    30    33    1
    47    31    32    1
    48    32    33    1
    49    32    35    1
    50    34    97    1
    51    34    98    1
    52    34    99    1
    53    35    61    1
    54    36    37    1
    55    36    60    1
    56    37    38    1
    57    38    39    1
    58    39    40    1
    59    40    41    1
    60    41    42    1
    61    45   100    1
    62    47   101    1
    63    47   102    1
    64    47   103    1
    65    48   104    1
    66    49   105    1
    67    49   106    1
    68    49   107    1
    69    50   108    1
    70    51    59    1
    71    52   109    1
    72    52   110    1
    73    52   111    1
    74    53    54    1
    75    54    55    2
    76    54    56    1
    77    56   112    1
    78    56   113    1
    79    56   114    1
    80    57   115    1
    81    57   116    1
    82    57   117    1
    83    58   118    1
    84    58   119    1
    85    58   120    1
    86    59   121    1
    87    59   122    1
    88    59   123    1
    89    60    61    2
    90     1    47    1
    91     1    62    1
    92     2    63    1
    93     3    64    1
    94     4    65    1
    95     5     6    1
    96     7     8    2
    97     9    78    1
    98    15    79    1
    99    18    80    1
   100    18    81    1
   101    19    82    1
   102    19    83    1
   103    20    23    1
   104    21    84    1
   105    21    85    1
   106    22    86    1
   107    22    87    1
   108    27    45    1
   109    28    34    1
   110    32    58    1
   111    33    46    2
   112    36    51    1
   113    36    66    1
   114    37    52    1
   115    37    67    1
   116    38    53    1
   117    38    68    1
   118    42    48    1
   119    42    72    1
   120    43    44    2
   121    60    73    1
   122    61    74    1
   123    39    69    1
   124    39    57    1
   125    40    70    1
   126    40    50    1
   127    41    71    1
   128    41    49    1
