@<TRIPOS>MOLECULE
*****
 123 128 0 0 0
SMALL
GASTEIGER

@<TRIPOS>ATOM
     1 C         -3.479665   -2.759353   2.803455 C.3        1 UNL1     0.0009
     2 C         -4.908283   -3.93658   2.702346 C.2        1 UNL1     -0.0787
     3 C         -6.32933   -4.178586   2.567788 C.2        1 UNL1     -0.0649
     4 C         -7.120949   -5.666604   2.408107 C.2        1 UNL1     -0.0542
     5 C         -8.311273   -6.309169   1.987018 C.2        1 UNL1     0.0115
     6 C         -9.775621   -6.066618   1.528565 C.3        1 UNL1     -0.0348
     7 C         -8.283122   -7.889232   1.704885 C.2        1 UNL1     0.2441
     8 O         -8.726749   -8.713767   2.4922 O.2        1 UNL1     -0.2702
     9 N         -7.954782   -8.246167   0.385438 N.am        1 UNL1     -0.2772
     10 C         -6.590936   -8.361863   0.244512 C.2        1 UNL1     0.1049
     11 C         -5.929971   -7.237757   0.035389 C.2        1 UNL1     0.0801
     12 C         -4.569835   -9.400887   1.289938 C.ar        1 UNL1     0.0753
     13 C         -3.968802   -8.103245   1.230833 C.ar        1 UNL1     0.0305
     14 C         -4.582133   -7.00936   0.480971 C.2        1 UNL1     0.0924
     15 N         -6.386538   -6.011763   -0.27285 N.pl3        1 UNL1     -0.3170
     16 C         -5.249351   -5.179798   -0.564216 C.3        1 UNL1     0.1275
     17 N         -4.123045   -5.785061   0.237543 N.2        1 UNL1     -0.2557
     18 C         -4.89147   -5.400602   -2.0308 C.3        1 UNL1     0.0016
     19 C         -6.117928   -5.107378   -2.880157 C.3        1 UNL1     0.0026
     20 N         -6.532785   -3.731552   -2.64346 N.3        1 UNL1     -0.3018
     21 C         -6.839384   -3.405767   -1.249103 C.3        1 UNL1     0.0026
     22 C         -5.592339   -3.703463   -0.414746 C.3        1 UNL1     0.0016
     23 C         -7.498774   -3.258728   -3.615028 C.3        1 UNL1     0.0012
     24 C         -7.032895   -3.588067   -5.042 C.3        1 UNL1     -0.0339
     25 C         -8.170369   -4.196674   -5.878545 C.3        1 UNL1     -0.0615
     26 C         -6.456556   -2.347032   -5.701124 C.3        1 UNL1     -0.0615
     27 C         -3.92099   -10.469528   1.904043 C.ar        1 UNL1     0.1347
     28 C         -2.656369   -10.372335   2.456617 C.ar        1 UNL1     0.0342
     29 C         -2.104835   -9.073768   2.430147 C.ar        1 UNL1     0.1435
     30 C         -2.758572   -7.985694   1.850542 C.ar        1 UNL1     0.0774
     31 O         -0.835983   -8.838722   2.829863 O.3        1 UNL1     -0.4436
     32 C         -0.494515   -7.579455   2.231097 C.3        1 UNL1     0.3143
     33 C         -1.819561   -6.890432   1.974747 C.2        1 UNL1     0.2504
     34 C         -1.79882   -11.523233   2.903988 C.3        1 UNL1     -0.0327
     35 O         0.191761   -6.807648   3.224368 O.2        1 UNL1     -0.4528
     36 C         2.596425   -4.568287   1.32412 C.3        1 UNL1     0.0854
     37 C         2.292098   -3.514078   0.191181 C.3        1 UNL1     0.0236
     38 C         2.836244   -2.033769   0.481584 C.3        1 UNL1     0.1131
     39 C         2.504475   -1.331603   1.859686 C.3        1 UNL1     0.0200
     40 C         0.969412   -1.422178   2.506072 C.3        1 UNL1     0.0661
     41 C         -0.476128   -1.086027   1.684472 C.3        1 UNL1     0.0091
     42 C         -2.1506   -1.81016   1.877292 C.3        1 UNL1     0.0661
     43 C         -5.868011   -9.592907   0.597026 C.2        1 UNL1     0.2131
     44 O         -6.284188   -10.678883   0.236208 O.2        1 UNL1     -0.2851
     45 O         -4.594657   -11.68798   1.958686 O.3        1 UNL1     -0.5056
     46 O         -2.051788   -5.703958   1.909914 O.2        1 UNL1     -0.2836
     47 C         -3.441421   -2.076205   4.19695 C.3        1 UNL1     -0.0566
     48 O         -2.840079   -0.497438   1.899569 O.3        1 UNL1     -0.3909
     49 C         -0.190765   -1.02324   0.200518 C.3        1 UNL1     -0.0577
     50 O         0.821734   -2.592528   3.284656 O.3        1 UNL1     -0.3910
     51 O         3.14633   -4.051493   2.514901 O.3        1 UNL1     -0.3753
     52 C         0.907139   -3.772398   -0.487133 C.3        1 UNL1     -0.0564
     53 O         2.850984   -1.15056   -0.731696 O.3        1 UNL1     -0.4608
     54 C         3.737728   -0.131614   -0.962707 C.2        1 UNL1     0.3042
     55 O         3.620487   1.048875   -0.636305 O.2        1 UNL1     -0.2512
     56 C         4.999977   -0.576036   -1.645298 C.3        1 UNL1     0.0332
     57 C         3.742264   -1.58506   2.840406 C.3        1 UNL1     -0.0567
     58 C         0.168721   -7.906458   0.872893 C.3        1 UNL1     0.0210
     59 C         3.031414   -2.637101   2.663746 C.3        1 UNL1     0.0372
     60 C         1.440436   -5.418616   1.718822 C.2        1 UNL1     -0.0208
     61 C         1.000057   -5.772153   2.927053 C.2        1 UNL1     0.0882
     62 H         -2.800264   -3.618548   2.857391 H        1 UNL1     0.0365
     63 H         -4.39903   -4.889035   2.863466 H        1 UNL1     0.0576
     64 H         -7.034217   -3.363834   2.387732 H        1 UNL1     0.0615
     65 H         -6.357204   -6.398972   2.683452 H        1 UNL1     0.0622
     66 H         3.332935   -5.250103   0.876095 H        1 UNL1     0.0645
     67 H         2.940273   -3.825824   -0.646222 H        1 UNL1     0.0362
     68 H         3.917483   -2.237695   0.510878 H        1 UNL1     0.0741
     69 H         2.653873   -0.265543   1.751964 H        1 UNL1     0.0359
     70 H         1.025942   -0.602155   3.247306 H        1 UNL1     0.0600
     71 H         -0.592047   -0.011871   1.928827 H        1 UNL1     0.0348
     72 H         -1.610888   -2.042408   2.806855 H        1 UNL1     0.0602
     73 H         1.019735   -5.86116   0.850251 H        1 UNL1     0.0628
     74 H         1.337597   -5.323631   3.862004 H        1 UNL1     0.1022
     75 H         -9.81989   -5.240195   0.778832 H        1 UNL1     0.0279
     76 H         -10.2615   -6.885773   1.00323 H        1 UNL1     0.0279
     77 H         -10.411621   -5.665454   2.33123 H        1 UNL1     0.0279
     78 H         -8.268171   -7.518652   -0.253769 H        1 UNL1     0.1553
     79 H         -7.299667   -5.836028   -0.650005 H        1 UNL1     0.1484
     80 H         -4.05377   -4.744757   -2.297054 H        1 UNL1     0.0317
     81 H         -4.5514   -6.427882   -2.20021 H        1 UNL1     0.0317
     82 H         -6.93735   -5.809911   -2.668246 H        1 UNL1     0.0428
     83 H         -5.841128   -5.272762   -3.921829 H        1 UNL1     0.0428
     84 H         -7.070604   -2.348483   -1.086319 H        1 UNL1     0.0428
     85 H         -7.735729   -3.932674   -0.893785 H        1 UNL1     0.0428
     86 H         -5.806788   -3.330643   0.569634 H        1 UNL1     0.0317
     87 H         -4.758861   -3.073488   -0.748726 H        1 UNL1     0.0317
     88 H         -8.449907   -3.774886   -3.430039 H        1 UNL1     0.0429
     89 H         -7.688181   -2.183872   -3.498478 H        1 UNL1     0.0429
     90 H         -6.209927   -4.310955   -4.993308 H        1 UNL1     0.0308
     91 H         -8.748973   -3.420134   -6.387767 H        1 UNL1     0.0233
     92 H         -7.773846   -4.893322   -6.620879 H        1 UNL1     0.0233
     93 H         -8.877232   -4.770768   -5.26732 H        1 UNL1     0.0233
     94 H         -7.212969   -1.555894   -5.743263 H        1 UNL1     0.0233
     95 H         -5.610015   -1.973354   -5.118289 H        1 UNL1     0.0233
     96 H         -6.118636   -2.556662   -6.719865 H        1 UNL1     0.0233
     97 H         -2.182757   -11.991066   3.805628 H        1 UNL1     0.0280
     98 H         -1.748905   -12.31968   2.150039 H        1 UNL1     0.0280
     99 H         -0.777027   -11.164177   3.109204 H        1 UNL1     0.0280
     100 H         -4.386485   -12.282166   1.259237 H        1 UNL1     0.2922
     101 H         -4.429802   -2.117949   4.654133 H        1 UNL1     0.0236
     102 H         -3.047722   -1.060814   4.165889 H        1 UNL1     0.0236
     103 H         -2.783907   -2.611081   4.902482 H        1 UNL1     0.0236
     104 H         -3.225415   -0.351591   1.013445 H        1 UNL1     0.2098
     105 H         0.68081   -1.591969   -0.113672 H        1 UNL1     0.0234
     106 H         -1.04345   -1.25547   -0.43739 H        1 UNL1     0.0234
     107 H         0.0   0.0   -0.0 H        1 UNL1     0.0234
     108 H         1.072675   -3.349534   2.720972 H        1 UNL1     0.2098
     109 H         0.397029   -2.838118   -0.760301 H        1 UNL1     0.0234
     110 H         0.972722   -4.424244   -1.364936 H        1 UNL1     0.0234
     111 H         0.219058   -4.300877   0.186069 H        1 UNL1     0.0234
     112 H         5.081772   -0.096363   -2.625385 H        1 UNL1     0.0342
     113 H         5.883671   -0.380633   -1.039703 H        1 UNL1     0.0342
     114 H         4.939555   -1.661323   -1.805502 H        1 UNL1     0.0342
     115 H         3.417256   -1.724232   3.880689 H        1 UNL1     0.0234
     116 H         4.354042   -2.447781   2.569318 H        1 UNL1     0.0234
     117 H         4.409967   -0.712106   2.940733 H        1 UNL1     0.0234
     118 H         0.906644   -7.140447   0.576747 H        1 UNL1     0.0309
     119 H         0.647217   -8.890786   0.854364 H        1 UNL1     0.0309
     120 H         -0.547046   -7.901583   0.043581 H        1 UNL1     0.0309
     121 H         2.593542   -2.24359   1.746809 H        1 UNL1     0.0524
     122 H         2.365255   -2.356827   3.496642 H        1 UNL1     0.0524
     123 H         4.009956   -2.19606   2.83117 H        1 UNL1     0.0524
@<TRIPOS>BOND
     1     1     2    1
     2     1    42    1
     3     2     3    2
     4     3     4    1
     5     4     5    2
     6     5     7    1
     7     6    75    1
     8     6    76    1
     9     6    77    1
    10     7     9   am
    11     9    10    1
    12    10    11    2
    13    10    43    1
    14    11    14    1
    15    11    15    1
    16    12    13   ar
    17    12    27   ar
    18    12    43    1
    19    13    14    1
    20    13    30   ar
    21    14    17    2
    22    15    16    1
    23    16    17    1
    24    16    18    1
    25    16    22    1
    26    18    19    1
    27    19    20    1
    28    20    21    1
    29    21    22    1
    30    23    24    1
    31    23    88    1
    32    23    89    1
    33    24    25    1
    34    24    26    1
    35    24    90    1
    36    25    91    1
    37    25    92    1
    38    25    93    1
    39    26    94    1
    40    26    95    1
    41    26    96    1
    42    27    28   ar
    43    28    29   ar
    44    29    30   ar
    45    29    31    1
    46    30    33    1
    47    31    32    1
    48    32    33    1
    49    32    35    1
    50    34    97    1
    51    34    98    1
    52    34    99    1
    53    35    61    1
    54    36    37    1
    55    36    60    1
    56    37    38    1
    57    38    39    1
    58    39    40    1
    59    40    41    1
    60    41    42    1
    61    45   100    1
    62    47   101    1
    63    47   102    1
    64    47   103    1
    65    48   104    1
    66    49   105    1
    67    49   106    1
    68    49   107    1
    69    50   108    1
    70    51    59    1
    71    52   109    1
    72    52   110    1
    73    52   111    1
    74    53    54    1
    75    54    55    2
    76    54    56    1
    77    56   112    1
    78    56   113    1
    79    56   114    1
    80    57   115    1
    81    57   116    1
    82    57   117    1
    83    58   118    1
    84    58   119    1
    85    58   120    1
    86    59   121    1
    87    59   122    1
    88    59   123    1
    89    60    61    2
    90     1    47    1
    91     1    62    1
    92     2    63    1
    93     3    64    1
    94     4    65    1
    95     5     6    1
    96     7     8    2
    97     9    78    1
    98    15    79    1
    99    18    80    1
   100    18    81    1
   101    19    82    1
   102    19    83    1
   103    20    23    1
   104    21    84    1
   105    21    85    1
   106    22    86    1
   107    22    87    1
   108    27    45    1
   109    28    34    1
   110    32    58    1
   111    33    46    2
   112    36    51    1
   113    36    66    1
   114    37    52    1
   115    37    67    1
   116    38    53    1
   117    38    68    1
   118    42    48    1
   119    42    72    1
   120    43    44    2
   121    60    73    1
   122    61    74    1
   123    39    69    1
   124    39    57    1
   125    40    70    1
   126    40    50    1
   127    41    71    1
   128    41    49    1
