@<TRIPOS>MOLECULE
*****
 123 128 0 0 0
SMALL
GASTEIGER

@<TRIPOS>ATOM
     1 C         5.132607   1.868755   0.419348 C.3        1 UNL1     0.0009
     2 C         6.521744   2.744024   -0.441605 C.2        1 UNL1     -0.0787
     3 C         7.791219   2.70608   -1.136616 C.2        1 UNL1     -0.0649
     4 C         8.608994   3.988336   -1.880538 C.2        1 UNL1     -0.0542
     5 C         9.597435   4.338193   -2.833251 C.2        1 UNL1     0.0115
     6 C         10.726984   3.77281   -3.737566 C.3        1 UNL1     -0.0348
     7 C         9.628551   5.837698   -3.405532 C.2        1 UNL1     0.2441
     8 O         10.431977   6.678371   -3.025661 O.2        1 UNL1     -0.2702
     9 N         8.846021   6.045913   -4.554637 N.am        1 UNL1     -0.2772
     10 C         7.558067   6.380334   -4.204409 C.2        1 UNL1     0.1049
     11 C         6.752667   5.373544   -3.918182 C.2        1 UNL1     0.0801
     12 C         6.236929   7.907351   -2.727876 C.ar        1 UNL1     0.0753
     13 C         5.526975   6.743556   -2.29181 C.ar        1 UNL1     0.0305
     14 C         5.674234   5.458218   -2.970981 C.2        1 UNL1     0.0924
     15 N         6.917145   4.053729   -4.111993 N.pl3        1 UNL1     -0.3170
     16 C         5.675777   3.403603   -3.785502 C.3        1 UNL1     0.1275
     17 N         5.028859   4.312884   -2.769418 N.2        1 UNL1     -0.2557
     18 C         4.793712   3.46267   -5.028954 C.3        1 UNL1     0.0016
     19 C         5.546453   2.831899   -6.1896 C.3        1 UNL1     0.0026
     20 N         5.872044   1.455331   -5.843072 N.3        1 UNL1     -0.3018
     21 C         6.667621   1.292493   -4.624504 C.3        1 UNL1     0.0026
     22 C         5.890648   1.929037   -3.470806 C.3        1 UNL1     0.0016
     23 C         6.31972   0.678009   -6.981492 C.3        1 UNL1     0.0012
     24 C         5.152083   0.411679   -7.944534 C.3        1 UNL1     -0.0339
     25 C         5.461867   0.926371   -9.359873 C.3        1 UNL1     -0.0615
     26 C         4.808965   -1.067853   -7.950405 C.3        1 UNL1     -0.0615
     27 C         6.000979   9.154152   -2.153478 C.ar        1 UNL1     0.1347
     28 C         5.054692   9.367613   -1.167057 C.ar        1 UNL1     0.0342
     29 C         4.402696   8.198982   -0.719432 C.ar        1 UNL1     0.1435
     30 C         4.654661   6.937571   -1.260335 C.ar        1 UNL1     0.0774
     31 O         3.37753   8.256254   0.158498 O.3        1 UNL1     -0.4436
     32 C         2.695493   7.00279   0.00189 C.3        1 UNL1     0.3143
     33 C         3.730178   6.058245   -0.575584 C.2        1 UNL1     0.2504
     34 C         4.571214   10.70665   -0.684017 C.3        1 UNL1     -0.0327
     35 O         2.379168   6.523048   1.314536 O.2        1 UNL1     -0.4528
     36 C         -0.803839   4.489234   0.940165 C.3        1 UNL1     0.0854
     37 C         -1.08558   3.240218   0.01924 C.3        1 UNL1     0.0236
     38 C         -1.625086   1.940928   0.788995 C.3        1 UNL1     0.1131
     39 C         -0.853019   1.40512   2.06143 C.3        1 UNL1     0.0200
     40 C         0.812685   1.316435   2.063725 C.3        1 UNL1     0.0661
     41 C         1.771746   0.609036   0.856498 C.3        1 UNL1     0.0091
     42 C         3.453054   1.043821   0.265253 C.3        1 UNL1     0.0661
     43 C         7.168529   7.759139   -3.873482 C.2        1 UNL1     0.2131
     44 O         7.521481   8.687181   -4.578395 O.2        1 UNL1     -0.2851
     45 O         6.767028   10.227323   -2.603936 O.3        1 UNL1     -0.5056
     46 O         3.790221   4.853255   -0.474361 O.2        1 UNL1     -0.2836
     47 C         5.575105   1.41967   1.837973 C.3        1 UNL1     -0.0566
     48 O         3.951333   -0.352383   0.303285 O.3        1 UNL1     -0.3909
     49 C         0.918818   0.376776   -0.37072 C.3        1 UNL1     -0.0577
     50 O         1.379394   2.544855   2.473052 O.3        1 UNL1     -0.3910
     51 O         -0.890597   4.262764   2.328912 O.3        1 UNL1     -0.3753
     52 C         -0.061962   3.143209   -1.158786 C.3        1 UNL1     -0.0564
     53 O         -2.21152   0.903043   -0.122717 O.3        1 UNL1     -0.4608
     54 C         -2.362317   -0.42545   0.177775 C.2        1 UNL1     0.3042
     55 O         -1.663088   -1.362121   -0.206366 O.2        1 UNL1     -0.2512
     56 C         -3.49021   -0.702248   1.130641 C.3        1 UNL1     0.0332
     57 C         -1.568474   2.018889   3.353555 C.3        1 UNL1     -0.0567
     58 C         1.588853   7.235762   -1.052908 C.3        1 UNL1     0.0210
     59 C         -1.227522   5.41249   3.103816 C.3        1 UNL1     0.0372
     60 C         0.497436   5.169333   0.696631 C.2        1 UNL1     -0.0208
     61 C         1.413931   5.615491   1.556703 C.2        1 UNL1     0.0882
     62 H         4.625338   2.833487   0.540521 H        1 UNL1     0.0365
     63 H         6.221991   3.78518   -0.30518 H        1 UNL1     0.0576
     64 H         8.276688   1.76116   -1.390691 H        1 UNL1     0.0615
     65 H         8.09866   4.877875   -1.501377 H        1 UNL1     0.0622
     66 H         -1.580267   5.216522   0.664017 H        1 UNL1     0.0645
     67 H         -1.974501   3.533592   -0.565833 H        1 UNL1     0.0362
     68 H         -2.578545   2.336277   1.171273 H        1 UNL1     0.0741
     69 H         -1.145357   0.378813   2.239306 H        1 UNL1     0.0359
     70 H         0.96643   0.639893   2.926114 H        1 UNL1     0.0600
     71 H         1.859663   -0.419734   1.257571 H        1 UNL1     0.0348
     72 H         3.352205   1.504938   1.258488 H        1 UNL1     0.0602
     73 H         0.58558   5.394819   -0.337117 H        1 UNL1     0.0628
     74 H         1.427248   5.379306   2.621258 H        1 UNL1     0.1022
     75 H         10.760371   2.658494   -3.672616 H        1 UNL1     0.0279
     76 H         10.622808   3.94212   -4.806935 H        1 UNL1     0.0279
     77 H         11.732065   4.041005   -3.380377 H        1 UNL1     0.0279
     78 H         8.802237   5.186886   -5.09891 H        1 UNL1     0.1553
     79 H         7.582862   3.6637   -4.753578 H        1 UNL1     0.1484
     80 H         3.854314   2.93423   -4.82635 H        1 UNL1     0.0317
     81 H         4.525834   4.496999   -5.269901 H        1 UNL1     0.0317
     82 H         6.452687   3.400871   -6.444399 H        1 UNL1     0.0428
     83 H         4.900226   2.8862   -7.066237 H        1 UNL1     0.0428
     84 H         6.830355   0.247384   -4.343299 H        1 UNL1     0.0428
     85 H         7.681974   1.698411   -4.741278 H        1 UNL1     0.0428
     86 H         6.435276   1.675528   -2.580243 H        1 UNL1     0.0317
     87 H         4.931121   1.414871   -3.336501 H        1 UNL1     0.0317
     88 H         7.084934   1.259343   -7.512332 H        1 UNL1     0.0429
     89 H         6.792067   -0.260141   -6.662842 H        1 UNL1     0.0429
     90 H         4.256878   0.925289   -7.574365 H        1 UNL1     0.0308
     91 H         6.466483   0.632871   -9.678789 H        1 UNL1     0.0233
     92 H         4.731975   0.545181   -10.077898 H        1 UNL1     0.0233
     93 H         5.413812   2.020037   -9.426361 H        1 UNL1     0.0233
     94 H         4.193461   -1.309373   -8.823708 H        1 UNL1     0.0233
     95 H         5.724332   -1.663461   -8.007997 H        1 UNL1     0.0233
     96 H         4.258156   -1.353327   -7.049804 H        1 UNL1     0.0233
     97 H         3.740629   10.61408   0.009373 H        1 UNL1     0.0280
     98 H         5.352268   11.258959   -0.145348 H        1 UNL1     0.0280
     99 H         4.237984   11.310788   -1.543709 H        1 UNL1     0.0280
     100 H         6.271435   10.995172   -2.828474 H        1 UNL1     0.2922
     101 H         4.71324   1.047165   2.391223 H        1 UNL1     0.0236
     102 H         6.108861   2.195328   2.3861 H        1 UNL1     0.0236
     103 H         6.274821   0.567973   1.803289 H        1 UNL1     0.0236
     104 H         4.307723   -0.51408   1.198724 H        1 UNL1     0.2098
     105 H         0.703041   1.274764   -0.944191 H        1 UNL1     0.0234
     106 H         1.274514   -0.415589   -1.029176 H        1 UNL1     0.0234
     107 H         0.0   -0.0   0.0 H        1 UNL1     0.0234
     108 H         1.197055   3.19719   1.769504 H        1 UNL1     0.2098
     109 H         0.975323   3.068952   -0.803484 H        1 UNL1     0.0234
     110 H         -0.273852   2.317153   -1.846156 H        1 UNL1     0.0234
     111 H         -0.094181   4.03593   -1.7975 H        1 UNL1     0.0234
     112 H         -3.542395   -1.774167   1.344211 H        1 UNL1     0.0342
     113 H         -3.401146   -0.124668   2.049505 H        1 UNL1     0.0342
     114 H         -4.430555   -0.409752   0.643442 H        1 UNL1     0.0342
     115 H         -2.651254   1.832487   3.348089 H        1 UNL1     0.0234
     116 H         -1.175193   1.642102   4.299816 H        1 UNL1     0.0234
     117 H         -1.542256   3.121618   3.388805 H        1 UNL1     0.0234
     118 H         0.585184   7.289182   -0.59596 H        1 UNL1     0.0309
     119 H         1.7547   8.132198   -1.658795 H        1 UNL1     0.0309
     120 H         1.500411   6.403841   -1.76015 H        1 UNL1     0.0309
     121 H         -0.82816   5.262846   4.106549 H        1 UNL1     0.0524
     122 H         -0.776986   6.335009   2.701308 H        1 UNL1     0.0524
     123 H         -2.306094   5.535491   3.144413 H        1 UNL1     0.0524
@<TRIPOS>BOND
     1     1     2    1
     2     1    42    1
     3     2     3    2
     4     3     4    1
     5     4     5    2
     6     5     7    1
     7     6    75    1
     8     6    76    1
     9     6    77    1
    10     7     9   am
    11     9    10    1
    12    10    11    2
    13    10    43    1
    14    11    14    1
    15    11    15    1
    16    12    13   ar
    17    12    27   ar
    18    12    43    1
    19    13    14    1
    20    13    30   ar
    21    14    17    2
    22    15    16    1
    23    16    17    1
    24    16    18    1
    25    16    22    1
    26    18    19    1
    27    19    20    1
    28    20    21    1
    29    21    22    1
    30    23    24    1
    31    23    88    1
    32    23    89    1
    33    24    25    1
    34    24    26    1
    35    24    90    1
    36    25    91    1
    37    25    92    1
    38    25    93    1
    39    26    94    1
    40    26    95    1
    41    26    96    1
    42    27    28   ar
    43    28    29   ar
    44    29    30   ar
    45    29    31    1
    46    30    33    1
    47    31    32    1
    48    32    33    1
    49    32    35    1
    50    34    97    1
    51    34    98    1
    52    34    99    1
    53    35    61    1
    54    36    37    1
    55    36    60    1
    56    37    38    1
    57    38    39    1
    58    39    40    1
    59    40    41    1
    60    41    42    1
    61    45   100    1
    62    47   101    1
    63    47   102    1
    64    47   103    1
    65    48   104    1
    66    49   105    1
    67    49   106    1
    68    49   107    1
    69    50   108    1
    70    51    59    1
    71    52   109    1
    72    52   110    1
    73    52   111    1
    74    53    54    1
    75    54    55    2
    76    54    56    1
    77    56   112    1
    78    56   113    1
    79    56   114    1
    80    57   115    1
    81    57   116    1
    82    57   117    1
    83    58   118    1
    84    58   119    1
    85    58   120    1
    86    59   121    1
    87    59   122    1
    88    59   123    1
    89    60    61    2
    90     1    47    1
    91     1    62    1
    92     2    63    1
    93     3    64    1
    94     4    65    1
    95     5     6    1
    96     7     8    2
    97     9    78    1
    98    15    79    1
    99    18    80    1
   100    18    81    1
   101    19    82    1
   102    19    83    1
   103    20    23    1
   104    21    84    1
   105    21    85    1
   106    22    86    1
   107    22    87    1
   108    27    45    1
   109    28    34    1
   110    32    58    1
   111    33    46    2
   112    36    51    1
   113    36    66    1
   114    37    52    1
   115    37    67    1
   116    38    53    1
   117    38    68    1
   118    42    48    1
   119    42    72    1
   120    43    44    2
   121    60    73    1
   122    61    74    1
   123    39    69    1
   124    39    57    1
   125    40    70    1
   126    40    50    1
   127    41    71    1
   128    41    49    1
