@<TRIPOS>MOLECULE
*****
 123 128 0 0 0
SMALL
GASTEIGER

@<TRIPOS>ATOM
     1 C         1.64468   0.887767   3.756673 C.3        1 UNL1     0.0009
     2 C         1.780788   2.552658   4.560816 C.2        1 UNL1     -0.0787
     3 C         2.573232   3.703528   4.939731 C.2        1 UNL1     -0.0649
     4 C         2.04063   5.146064   5.648097 C.2        1 UNL1     -0.0542
     5 C         2.352356   6.507669   5.884604 C.2        1 UNL1     0.0115
     6 C         3.478791   7.57341   5.791521 C.3        1 UNL1     -0.0348
     7 C         1.172442   7.514077   6.299255 C.2        1 UNL1     0.2441
     8 O         0.991302   7.889207   7.449469 O.2        1 UNL1     -0.2702
     9 N         0.524964   8.139328   5.219448 N.am        1 UNL1     -0.2772
     10 C         -0.517387   7.362061   4.769244 C.2        1 UNL1     0.1049
     11 C         -0.200146   6.391238   3.931937 C.2        1 UNL1     0.0801
     12 C         -2.521373   6.085236   5.550969 C.ar        1 UNL1     0.0753
     13 C         -2.020252   4.983743   4.786639 C.ar        1 UNL1     0.0305
     14 C         -0.912446   5.145086   3.847605 C.2        1 UNL1     0.0924
     15 N         0.949154   6.158078   3.275224 N.pl3        1 UNL1     -0.3170
     16 C         0.719043   5.073377   2.358312 C.3        1 UNL1     0.1275
     17 N         -0.388742   4.269587   2.99428 N.2        1 UNL1     -0.2557
     18 C         0.129498   5.674258   1.085882 C.3        1 UNL1     0.0016
     19 C         1.078324   6.743452   0.568054 C.3        1 UNL1     0.0026
     20 N         2.374257   6.132257   0.307235 N.3        1 UNL1     -0.3018
     21 C         2.993995   5.473412   1.45885 C.3        1 UNL1     0.0026
     22 C         2.025871   4.400302   1.959914 C.3        1 UNL1     0.0016
     23 C         3.255572   6.986239   -0.463895 C.3        1 UNL1     0.0012
     24 C         2.754691   7.11013   -1.911488 C.3        1 UNL1     -0.0339
     25 C         1.220714   7.196801   -1.970316 C.3        1 UNL1     -0.0615
     26 C         3.408312   8.302281   -2.588491 C.3        1 UNL1     -0.0615
     27 C         -3.652878   5.952261   6.352301 C.ar        1 UNL1     0.1347
     28 C         -4.387588   4.783165   6.438693 C.ar        1 UNL1     0.0342
     29 C         -3.847493   3.698287   5.715849 C.ar        1 UNL1     0.1435
     30 C         -2.694419   3.806772   4.937472 C.ar        1 UNL1     0.0774
     31 O         -4.506282   2.523553   5.610953 O.3        1 UNL1     -0.4436
     32 C         -3.92128   1.880444   4.468562 C.3        1 UNL1     0.3143
     33 C         -2.547725   2.5037   4.323265 C.2        1 UNL1     0.2504
     34 C         -5.74288   4.638371   7.07298 C.3        1 UNL1     -0.0327
     35 O         -3.72056   0.503632   4.811131 O.2        1 UNL1     -0.4528
     36 C         -4.027436   -1.432854   1.56091 C.3        1 UNL1     0.0854
     37 C         -3.209701   -1.268638   0.222305 C.3        1 UNL1     0.0236
     38 C         -2.495122   -2.605345   -0.301465 C.3        1 UNL1     0.1131
     39 C         -1.5921   -3.450847   0.68441 C.3        1 UNL1     0.0200
     40 C         -0.514511   -2.690095   1.705437 C.3        1 UNL1     0.0661
     41 C         0.619728   -1.512217   1.254088 C.3        1 UNL1     0.0091
     42 C         1.285342   -0.081072   2.189067 C.3        1 UNL1     0.0661
     43 C         -1.848703   7.398517   5.39264 C.2        1 UNL1     0.2131
     44 O         -2.379848   8.462627   5.653968 O.2        1 UNL1     -0.2851
     45 O         -4.048008   7.059972   7.099487 O.3        1 UNL1     -0.5056
     46 O         -1.550819   2.024059   3.831353 O.2        1 UNL1     -0.2836
     47 C         2.280485   -0.201735   4.661504 C.3        1 UNL1     -0.0566
     48 O         2.699007   -0.368704   1.845649 O.3        1 UNL1     -0.3909
     49 C         0.279978   -1.0137   -0.132832 C.3        1 UNL1     -0.0577
     50 O         -1.147393   -2.314158   2.912024 O.3        1 UNL1     -0.3910
     51 O         -3.88912   -2.671749   2.21927 O.3        1 UNL1     -0.3753
     52 C         -2.522434   0.132727   0.128538 C.3        1 UNL1     -0.0564
     53 O         -2.029686   -2.518999   -1.725628 O.3        1 UNL1     -0.4608
     54 C         -0.874427   -3.066479   -2.219158 C.2        1 UNL1     0.3042
     55 O         0.176427   -2.482509   -2.480927 O.2        1 UNL1     -0.2512
     56 C         -0.939543   -4.557886   -2.387022 C.3        1 UNL1     0.0332
     57 C         -2.503862   -4.614071   1.295782 C.3        1 UNL1     -0.0567
     58 C         -4.783701   2.284092   3.250027 C.3        1 UNL1     0.0210
     59 C         -5.033448   -3.52082   2.1454 C.3        1 UNL1     0.0372
     60 C         -3.784368   -0.375722   2.580003 C.2        1 UNL1     -0.0208
     61 C         -3.579316   -0.472785   3.894262 C.2        1 UNL1     0.0882
     62 H         0.570465   0.89019   3.977509 H        1 UNL1     0.0365
     63 H         0.771255   2.6688   4.960595 H        1 UNL1     0.0576
     64 H         3.617496   3.804658   4.635766 H        1 UNL1     0.0615
     65 H         1.026384   4.912827   5.983341 H        1 UNL1     0.0622
     66 H         -5.078186   -1.323173   1.25769 H        1 UNL1     0.0645
     67 H         -3.985118   -1.117731   -0.548744 H        1 UNL1     0.0362
     68 H         -3.383563   -3.227369   -0.4893 H        1 UNL1     0.0741
     69 H         -0.949972   -4.096841   0.100654 H        1 UNL1     0.0359
     70 H         0.123775   -3.550285   1.984229 H        1 UNL1     0.0600
     71 H         1.49535   -2.157397   1.044359 H        1 UNL1     0.0348
     72 H         0.864481   -0.764923   2.940425 H        1 UNL1     0.0602
     73 H         -3.918413   0.577871   2.132856 H        1 UNL1     0.0628
     74 H         -3.375184   -1.406588   4.419218 H        1 UNL1     0.1022
     75 H         4.430238   7.176712   6.220956 H        1 UNL1     0.0279
     76 H         3.780833   7.873919   4.790755 H        1 UNL1     0.0279
     77 H         3.295261   8.443784   6.438411 H        1 UNL1     0.0279
     78 H         1.178705   8.252075   4.447445 H        1 UNL1     0.1553
     79 H         1.657479   6.85345   3.128033 H        1 UNL1     0.1484
     80 H         -0.015925   4.876278   0.347745 H        1 UNL1     0.0317
     81 H         -0.858145   6.106793   1.278564 H        1 UNL1     0.0317
     82 H         1.171023   7.581975   1.273886 H        1 UNL1     0.0428
     83 H         0.637879   7.159943   -0.338364 H        1 UNL1     0.0428
     84 H         3.926964   4.954549   1.217686 H        1 UNL1     0.0428
     85 H         3.282966   6.194669   2.235768 H        1 UNL1     0.0428
     86 H         2.563684   3.853615   2.712163 H        1 UNL1     0.0317
     87 H         1.856399   3.652733   1.175366 H        1 UNL1     0.0317
     88 H         3.251117   7.98401   -0.005933 H        1 UNL1     0.0429
     89 H         4.290785   6.622724   -0.432815 H        1 UNL1     0.0429
     90 H         3.076708   6.229359   -2.479609 H        1 UNL1     0.0308
     91 H         0.83744   7.944612   -1.269615 H        1 UNL1     0.0233
     92 H         0.886363   7.446741   -2.979944 H        1 UNL1     0.0233
     93 H         0.738576   6.245303   -1.715306 H        1 UNL1     0.0233
     94 H         2.803022   8.631853   -3.439868 H        1 UNL1     0.0233
     95 H         3.483456   9.136436   -1.885283 H        1 UNL1     0.0233
     96 H         4.409898   8.055347   -2.951558 H        1 UNL1     0.0233
     97 H         -6.48467   4.271355   6.369932 H        1 UNL1     0.0280
     98 H         -5.736222   3.921466   7.904399 H        1 UNL1     0.0280
     99 H         -6.079845   5.617413   7.451169 H        1 UNL1     0.0280
     100 H         -3.357184   7.46602   7.592954 H        1 UNL1     0.2922
     101 H         1.495153   -0.781519   5.146024 H        1 UNL1     0.0236
     102 H         2.994202   0.200472   5.379711 H        1 UNL1     0.0236
     103 H         2.854811   -0.940904   4.078432 H        1 UNL1     0.0236
     104 H         2.699265   -1.038194   1.133782 H        1 UNL1     0.2098
     105 H         1.109165   -1.040539   -0.835356 H        1 UNL1     0.0234
     106 H         -0.605591   -1.468902   -0.576098 H        1 UNL1     0.0234
     107 H         -0.0   0.0   0.0 H        1 UNL1     0.0234
     108 H         -1.960283   -2.849453   2.992251 H        1 UNL1     0.2098
     109 H         -3.251012   0.955291   0.145099 H        1 UNL1     0.0234
     110 H         -1.76855   0.295277   0.906343 H        1 UNL1     0.0234
     111 H         -1.965125   0.248156   -0.810626 H        1 UNL1     0.0234
     112 H         0.017505   -4.932225   -2.762888 H        1 UNL1     0.0342
     113 H         -1.220824   -5.062044   -1.463686 H        1 UNL1     0.0342
     114 H         -1.708532   -4.785366   -3.138069 H        1 UNL1     0.0342
     115 H         -1.904094   -5.368358   1.82353 H        1 UNL1     0.0234
     116 H         -3.269762   -4.259995   1.988657 H        1 UNL1     0.0234
     117 H         -2.998959   -5.234056   0.528685 H        1 UNL1     0.0234
     118 H         -5.36585   1.433575   2.854135 H        1 UNL1     0.0309
     119 H         -5.463258   3.115828   3.461258 H        1 UNL1     0.0309
     120 H         -4.178711   2.597201   2.39209 H        1 UNL1     0.0309
     121 H         -5.010445   -4.181238   3.011815 H        1 UNL1     0.0524
     122 H         -5.978398   -2.953789   2.185199 H        1 UNL1     0.0524
     123 H         -5.010394   -4.103768   1.229029 H        1 UNL1     0.0524
@<TRIPOS>BOND
     1     1     2    1
     2     1    42    1
     3     2     3    2
     4     3     4    1
     5     4     5    2
     6     5     7    1
     7     6    75    1
     8     6    76    1
     9     6    77    1
    10     7     9   am
    11     9    10    1
    12    10    11    2
    13    10    43    1
    14    11    14    1
    15    11    15    1
    16    12    13   ar
    17    12    27   ar
    18    12    43    1
    19    13    14    1
    20    13    30   ar
    21    14    17    2
    22    15    16    1
    23    16    17    1
    24    16    18    1
    25    16    22    1
    26    18    19    1
    27    19    20    1
    28    20    21    1
    29    21    22    1
    30    23    24    1
    31    23    88    1
    32    23    89    1
    33    24    25    1
    34    24    26    1
    35    24    90    1
    36    25    91    1
    37    25    92    1
    38    25    93    1
    39    26    94    1
    40    26    95    1
    41    26    96    1
    42    27    28   ar
    43    28    29   ar
    44    29    30   ar
    45    29    31    1
    46    30    33    1
    47    31    32    1
    48    32    33    1
    49    32    35    1
    50    34    97    1
    51    34    98    1
    52    34    99    1
    53    35    61    1
    54    36    37    1
    55    36    60    1
    56    37    38    1
    57    38    39    1
    58    39    40    1
    59    40    41    1
    60    41    42    1
    61    45   100    1
    62    47   101    1
    63    47   102    1
    64    47   103    1
    65    48   104    1
    66    49   105    1
    67    49   106    1
    68    49   107    1
    69    50   108    1
    70    51    59    1
    71    52   109    1
    72    52   110    1
    73    52   111    1
    74    53    54    1
    75    54    55    2
    76    54    56    1
    77    56   112    1
    78    56   113    1
    79    56   114    1
    80    57   115    1
    81    57   116    1
    82    57   117    1
    83    58   118    1
    84    58   119    1
    85    58   120    1
    86    59   121    1
    87    59   122    1
    88    59   123    1
    89    60    61    2
    90     1    47    1
    91     1    62    1
    92     2    63    1
    93     3    64    1
    94     4    65    1
    95     5     6    1
    96     7     8    2
    97     9    78    1
    98    15    79    1
    99    18    80    1
   100    18    81    1
   101    19    82    1
   102    19    83    1
   103    20    23    1
   104    21    84    1
   105    21    85    1
   106    22    86    1
   107    22    87    1
   108    27    45    1
   109    28    34    1
   110    32    58    1
   111    33    46    2
   112    36    51    1
   113    36    66    1
   114    37    52    1
   115    37    67    1
   116    38    53    1
   117    38    68    1
   118    42    48    1
   119    42    72    1
   120    43    44    2
   121    60    73    1
   122    61    74    1
   123    39    69    1
   124    39    57    1
   125    40    70    1
   126    40    50    1
   127    41    71    1
   128    41    49    1
