@<TRIPOS>MOLECULE
*****
 123 128 0 0 0
SMALL
GASTEIGER

@<TRIPOS>ATOM
     1 C         5.193488   1.654019   0.539898 C.3        1 UNL1     0.0009
     2 C         6.630979   2.494344   -0.275276 C.2        1 UNL1     -0.0787
     3 C         7.904477   2.422556   -0.960182 C.2        1 UNL1     -0.0649
     4 C         8.789088   3.691705   -1.647991 C.2        1 UNL1     -0.0542
     5 C         9.802715   4.029891   -2.578189 C.2        1 UNL1     0.0115
     6 C         10.91395   3.446033   -3.493388 C.3        1 UNL1     -0.0348
     7 C         9.909946   5.546583   -3.093102 C.2        1 UNL1     0.2441
     8 O         10.747822   6.333661   -2.674777 O.2        1 UNL1     -0.2702
     9 N         9.150061   5.834232   -4.240266 N.am        1 UNL1     -0.2772
     10 C         7.875581   6.215706   -3.888839 C.2        1 UNL1     0.1049
     11 C         7.021002   5.238031   -3.647863 C.2        1 UNL1     0.0801
     12 C         6.612003   7.747124   -2.367174 C.ar        1 UNL1     0.0753
     13 C         5.843848   6.602633   -1.981577 C.ar        1 UNL1     0.0305
     14 C         5.93788   5.338039   -2.707533 C.2        1 UNL1     0.0924
     15 N         7.12555   3.920087   -3.889978 N.pl3        1 UNL1     -0.3170
     16 C         5.851776   3.317486   -3.599073 C.3        1 UNL1     0.1275
     17 N         5.237542   4.217687   -2.555005 N.2        1 UNL1     -0.2557
     18 C         4.986477   3.464474   -4.847012 C.3        1 UNL1     0.0016
     19 C         5.720954   2.842687   -6.024091 C.3        1 UNL1     0.0026
     20 N         5.978131   1.440319   -5.727019 N.3        1 UNL1     -0.3018
     21 C         6.752447   1.194755   -4.508617 C.3        1 UNL1     0.0026
     22 C         5.994107   1.823706   -3.338474 C.3        1 UNL1     0.0016
     23 C         6.400805   0.685802   -6.890074 C.3        1 UNL1     0.0012
     24 C         5.230974   0.507222   -7.870563 C.3        1 UNL1     -0.0339
     25 C         5.247248   1.58439   -8.967606 C.3        1 UNL1     -0.0615
     26 C         5.255034   -0.892053   -8.460673 C.3        1 UNL1     -0.0615
     27 C         6.428673   8.981346   -1.748138 C.ar        1 UNL1     0.1347
     28 C         5.483162   9.20221   -0.762604 C.ar        1 UNL1     0.0342
     29 C         4.772551   8.049728   -0.365137 C.ar        1 UNL1     0.1435
     30 C         4.970844   6.798917   -0.951115 C.ar        1 UNL1     0.0774
     31 O         3.742075   8.122458   0.505401 O.3        1 UNL1     -0.4436
     32 C         3.003799   6.909274   0.295624 C.3        1 UNL1     0.3143
     33 C         3.999122   5.93921   -0.308132 C.2        1 UNL1     0.2504
     34 C         5.057859   10.543586   -0.23352 C.3        1 UNL1     -0.0327
     35 O         2.651677   6.396302   1.586408 O.2        1 UNL1     -0.4528
     36 C         -0.618937   4.530252   1.107839 C.3        1 UNL1     0.0854
     37 C         -0.949186   3.331172   0.13796 C.3        1 UNL1     0.0236
     38 C         -1.556915   2.030933   0.853354 C.3        1 UNL1     0.1131
     39 C         -0.8241   1.412173   2.111284 C.3        1 UNL1     0.0200
     40 C         0.835513   1.245012   2.12468 C.3        1 UNL1     0.0661
     41 C         1.772975   0.538747   0.89995 C.3        1 UNL1     0.0091
     42 C         3.478871   0.915537   0.34017 C.3        1 UNL1     0.0661
     43 C         7.54756   7.598027   -3.509436 C.2        1 UNL1     0.2131
     44 O         7.950898   8.534066   -4.175684 O.2        1 UNL1     -0.2851
     45 O         7.248767   10.033269   -2.151054 O.3        1 UNL1     -0.5056
     46 O         4.001648   4.72979   -0.252001 O.2        1 UNL1     -0.2836
     47 C         5.599645   1.131907   1.944326 C.3        1 UNL1     -0.0566
     48 O         3.91084   -0.503058   0.329734 O.3        1 UNL1     -0.3909
     49 C         0.922975   0.392955   -0.342523 C.3        1 UNL1     -0.0577
     50 O         1.454783   2.429199   2.585039 O.3        1 UNL1     -0.3910
     51 O         -0.730697   4.256427   2.48623 O.3        1 UNL1     -0.3753
     52 C         0.081018   3.230056   -1.033963 C.3        1 UNL1     -0.0564
     53 O         -2.181723   1.056627   -0.101983 O.3        1 UNL1     -0.4608
     54 C         -2.416234   -0.268996   0.154255 C.2        1 UNL1     0.3042
     55 O         -1.860988   -1.238809   -0.360531 O.2        1 UNL1     -0.2512
     56 C         -3.435978   -0.501875   1.232495 C.3        1 UNL1     0.0332
     57 C         -1.523504   2.010321   3.419423 C.3        1 UNL1     -0.0567
     58 C         1.920351   7.233397   -0.75918 C.3        1 UNL1     0.0210
     59 C         -1.060291   5.383695   3.296477 C.3        1 UNL1     0.0372
     60 C         0.715212   5.156849   0.901482 C.2        1 UNL1     -0.0208
     61 C         1.64255   5.526864   1.78572 C.2        1 UNL1     0.0882
     62 H         4.730684   2.636401   0.693036 H        1 UNL1     0.0365
     63 H         6.37887   3.542656   -0.102208 H        1 UNL1     0.0576
     64 H         8.347822   1.465941   -1.245563 H        1 UNL1     0.0615
     65 H         8.31701   4.589541   -1.239928 H        1 UNL1     0.0622
     66 H         -1.357552   5.30315   0.852646 H        1 UNL1     0.0645
     67 H         -1.817245   3.687782   -0.4433 H        1 UNL1     0.0362
     68 H         -2.494769   2.456254   1.242012 H        1 UNL1     0.0741
     69 H         -1.165988   0.394868   2.247705 H        1 UNL1     0.0359
     70 H         0.948414   0.530243   2.962187 H        1 UNL1     0.0600
     71 H         1.808458   -0.507283   1.262606 H        1 UNL1     0.0348
     72 H         3.389344   1.343486   1.349209 H        1 UNL1     0.0602
     73 H         0.824604   5.416372   -0.122203 H        1 UNL1     0.0628
     74 H         1.63368   5.250727   2.840665 H        1 UNL1     0.1022
     75 H         10.946408   2.332969   -3.409312 H        1 UNL1     0.0279
     76 H         10.78999   3.596616   -4.563448 H        1 UNL1     0.0279
     77 H         11.926092   3.71824   -3.15996 H        1 UNL1     0.0279
     78 H         9.071811   4.999149   -4.816972 H        1 UNL1     0.1553
     79 H         7.77895   3.523328   -4.540043 H        1 UNL1     0.1484
     80 H         4.021313   2.973725   -4.672683 H        1 UNL1     0.0317
     81 H         4.769828   4.51856   -5.051015 H        1 UNL1     0.0317
     82 H         6.655434   3.377409   -6.249332 H        1 UNL1     0.0428
     83 H         5.087168   2.960099   -6.903624 H        1 UNL1     0.0428
     84 H         6.863147   0.133364   -4.265707 H        1 UNL1     0.0428
     85 H         7.785848   1.556465   -4.601161 H        1 UNL1     0.0428
     86 H         6.516943   1.511719   -2.453435 H        1 UNL1     0.0317
     87 H         5.010219   1.350705   -3.232028 H        1 UNL1     0.0317
     88 H         7.195695   1.251331   -7.393682 H        1 UNL1     0.0429
     89 H         6.828224   -0.283516   -6.602831 H        1 UNL1     0.0429
     90 H         4.285908   0.583866   -7.319936 H        1 UNL1     0.0308
     91 H         6.187835   1.568875   -9.526318 H        1 UNL1     0.0233
     92 H         4.415538   1.441651   -9.661502 H        1 UNL1     0.0233
     93 H         5.135647   2.596686   -8.560621 H        1 UNL1     0.0233
     94 H         4.546688   -0.963118   -9.293159 H        1 UNL1     0.0233
     95 H         6.252975   -1.11753   -8.846984 H        1 UNL1     0.0233
     96 H         4.987238   -1.644739   -7.713868 H        1 UNL1     0.0233
     97 H         4.271807   10.45745   0.510747 H        1 UNL1     0.0280
     98 H         5.882472   11.07407   0.260297 H        1 UNL1     0.0280
     99 H         4.682023   11.165096   -1.062717 H        1 UNL1     0.0280
     100 H         8.170786   9.850314   -2.105988 H        1 UNL1     0.2922
     101 H         4.737301   0.676587   2.430847 H        1 UNL1     0.0236
     102 H         6.065018   1.895038   2.567257 H        1 UNL1     0.0236
     103 H         6.34704   0.323138   1.885281 H        1 UNL1     0.0236
     104 H         4.340495   -0.686872   1.187976 H        1 UNL1     0.2098
     105 H         0.716024   1.327811   -0.857331 H        1 UNL1     0.0234
     106 H         1.275264   -0.357811   -1.04975 H        1 UNL1     0.0234
     107 H         0.0   -0.0   0.0 H        1 UNL1     0.0234
     108 H         1.254696   3.131979   1.937093 H        1 UNL1     0.2098
     109 H         1.107485   3.075195   -0.673276 H        1 UNL1     0.0234
     110 H         -0.172044   2.453369   -1.763661 H        1 UNL1     0.0234
     111 H         0.110688   4.153481   -1.627556 H        1 UNL1     0.0234
     112 H         -3.572925   -1.576097   1.389466 H        1 UNL1     0.0342
     113 H         -3.170008   -0.001883   2.162608 H        1 UNL1     0.0342
     114 H         -4.394823   -0.086127   0.893474 H        1 UNL1     0.0342
     115 H         -2.593034   1.762104   3.460433 H        1 UNL1     0.0234
     116 H         -1.072725   1.676186   4.356014 H        1 UNL1     0.0234
     117 H         -1.560019   3.113231   3.433466 H        1 UNL1     0.0234
     118 H         1.029744   7.704374   -0.307509 H        1 UNL1     0.0309
     119 H         2.288001   7.868182   -1.571636 H        1 UNL1     0.0309
     120 H         1.515863   6.334057   -1.236342 H        1 UNL1     0.0309
     121 H         -0.254415   6.109988   3.19441 H        1 UNL1     0.0524
     122 H         -1.992673   5.87447   2.971144 H        1 UNL1     0.0524
     123 H         -1.16418   5.082558   4.335042 H        1 UNL1     0.0524
@<TRIPOS>BOND
     1     1     2    1
     2     1    42    1
     3     2     3    2
     4     3     4    1
     5     4     5    2
     6     5     7    1
     7     6    75    1
     8     6    76    1
     9     6    77    1
    10     7     9   am
    11     9    10    1
    12    10    11    2
    13    10    43    1
    14    11    14    1
    15    11    15    1
    16    12    13   ar
    17    12    27   ar
    18    12    43    1
    19    13    14    1
    20    13    30   ar
    21    14    17    2
    22    15    16    1
    23    16    17    1
    24    16    18    1
    25    16    22    1
    26    18    19    1
    27    19    20    1
    28    20    21    1
    29    21    22    1
    30    23    24    1
    31    23    88    1
    32    23    89    1
    33    24    25    1
    34    24    26    1
    35    24    90    1
    36    25    91    1
    37    25    92    1
    38    25    93    1
    39    26    94    1
    40    26    95    1
    41    26    96    1
    42    27    28   ar
    43    28    29   ar
    44    29    30   ar
    45    29    31    1
    46    30    33    1
    47    31    32    1
    48    32    33    1
    49    32    35    1
    50    34    97    1
    51    34    98    1
    52    34    99    1
    53    35    61    1
    54    36    37    1
    55    36    60    1
    56    37    38    1
    57    38    39    1
    58    39    40    1
    59    40    41    1
    60    41    42    1
    61    45   100    1
    62    47   101    1
    63    47   102    1
    64    47   103    1
    65    48   104    1
    66    49   105    1
    67    49   106    1
    68    49   107    1
    69    50   108    1
    70    51    59    1
    71    52   109    1
    72    52   110    1
    73    52   111    1
    74    53    54    1
    75    54    55    2
    76    54    56    1
    77    56   112    1
    78    56   113    1
    79    56   114    1
    80    57   115    1
    81    57   116    1
    82    57   117    1
    83    58   118    1
    84    58   119    1
    85    58   120    1
    86    59   121    1
    87    59   122    1
    88    59   123    1
    89    60    61    2
    90     1    47    1
    91     1    62    1
    92     2    63    1
    93     3    64    1
    94     4    65    1
    95     5     6    1
    96     7     8    2
    97     9    78    1
    98    15    79    1
    99    18    80    1
   100    18    81    1
   101    19    82    1
   102    19    83    1
   103    20    23    1
   104    21    84    1
   105    21    85    1
   106    22    86    1
   107    22    87    1
   108    27    45    1
   109    28    34    1
   110    32    58    1
   111    33    46    2
   112    36    51    1
   113    36    66    1
   114    37    52    1
   115    37    67    1
   116    38    53    1
   117    38    68    1
   118    42    48    1
   119    42    72    1
   120    43    44    2
   121    60    73    1
   122    61    74    1
   123    39    69    1
   124    39    57    1
   125    40    70    1
   126    40    50    1
   127    41    71    1
   128    41    49    1
