@<TRIPOS>MOLECULE
*****
 123 128 0 0 0
SMALL
GASTEIGER

@<TRIPOS>ATOM
     1 C         4.049412   0.523309   3.652419 C.3        1 UNL1     0.0009
     2 C         5.772237   0.019018   4.115671 C.2        1 UNL1     -0.0787
     3 C         6.674092   -0.782917   4.915423 C.2        1 UNL1     -0.0649
     4 C         8.358137   -0.898048   4.784671 C.2        1 UNL1     -0.0542
     5 C         9.495736   -1.683473   5.094595 C.2        1 UNL1     0.0115
     6 C         9.993111   -2.90688   5.912653 C.3        1 UNL1     -0.0348
     7 C         10.860537   -1.425569   4.289739 C.2        1 UNL1     0.2441
     8 O         11.802098   -0.801372   4.759171 O.2        1 UNL1     -0.2702
     9 N         11.00362   -2.1838   3.11468 N.am        1 UNL1     -0.2772
     10 C         10.440218   -1.524682   2.046287 C.2        1 UNL1     0.1049
     11 C         9.13515   -1.663782   1.899079 C.2        1 UNL1     0.0801
     12 C         10.371829   0.696662   0.898118 C.ar        1 UNL1     0.0753
     13 C         8.945334   0.592426   0.951539 C.ar        1 UNL1     0.0305
     14 C         8.282925   -0.652075   1.335574 C.2        1 UNL1     0.0924
     15 N         8.284074   -2.514282   2.498118 N.pl3        1 UNL1     -0.3170
     16 C         7.00199   -2.375167   1.860027 C.3        1 UNL1     0.1275
     17 N         6.988303   -0.956701   1.34477 N.2        1 UNL1     -0.2557
     18 C         7.010765   -3.27357   0.626942 C.3        1 UNL1     0.0016
     19 C         7.345464   -4.691765   1.060865 C.3        1 UNL1     0.0026
     20 N         6.346919   -5.134109   2.024332 N.3        1 UNL1     -0.3018
     21 C         6.220985   -4.295895   3.218444 C.3        1 UNL1     0.0026
     22 C         5.880074   -2.877101   2.759424 C.3        1 UNL1     0.0016
     23 C         6.397157   -6.560963   2.273749 C.3        1 UNL1     0.0012
     24 C         5.904057   -7.340322   1.044437 C.3        1 UNL1     -0.0339
     25 C         7.078242   -7.910816   0.232105 C.3        1 UNL1     -0.0615
     26 C         4.938143   -8.431418   1.472575 C.3        1 UNL1     -0.0615
     27 C         10.993978   1.845839   0.415997 C.ar        1 UNL1     0.1347
     28 C         10.297596   2.935632   -0.075383 C.ar        1 UNL1     0.0342
     29 C         8.894598   2.830142   0.032466 C.ar        1 UNL1     0.1435
     30 C         8.258086   1.699811   0.546688 C.ar        1 UNL1     0.0774
     31 O         8.074677   3.761084   -0.502402 O.3        1 UNL1     -0.4436
     32 C         6.804301   3.102442   -0.617331 C.3        1 UNL1     0.3143
     33 C         6.845225   1.982163   0.402234 C.2        1 UNL1     0.2504
     34 C         10.888935   4.090193   -0.835256 C.3        1 UNL1     -0.0327
     35 O         5.802919   4.028975   -0.179127 O.2        1 UNL1     -0.4528
     36 C         2.663636   3.169079   -2.131964 C.3        1 UNL1     0.0854
     37 C         1.882942   1.80095   -2.211102 C.3        1 UNL1     0.0236
     38 C         0.326922   1.887859   -1.832956 C.3        1 UNL1     0.1131
     39 C         -0.115703   2.588852   -0.485751 C.3        1 UNL1     0.0200
     40 C         0.714658   2.296665   0.931134 C.3        1 UNL1     0.0661
     41 C         1.118629   0.769464   1.549256 C.3        1 UNL1     0.0091
     42 C         2.567224   0.230862   2.53763 C.3        1 UNL1     0.0661
     43 C         11.166422   -0.494001   1.289532 C.2        1 UNL1     0.2131
     44 O         12.315194   -0.683465   0.93293 O.2        1 UNL1     -0.2851
     45 O         12.386595   1.884033   0.440406 O.3        1 UNL1     -0.5056
     46 O         5.921197   1.456353   0.981501 O.2        1 UNL1     -0.2836
     47 C         3.443494   1.441772   4.747531 C.3        1 UNL1     -0.0566
     48 O         1.755951   -0.510241   3.533479 O.3        1 UNL1     -0.3909
     49 C         0.914807   -0.265278   0.465162 C.3        1 UNL1     -0.0577
     50 O         1.814302   3.175544   1.057934 O.3        1 UNL1     -0.3910
     51 O         1.952743   4.252844   -1.577423 O.3        1 UNL1     -0.3753
     52 C         2.777778   0.594476   -1.776776 C.3        1 UNL1     -0.0564
     53 O         -0.460155   0.678947   -2.246921 O.3        1 UNL1     -0.4608
     54 C         -1.485247   0.114956   -1.533457 C.2        1 UNL1     0.3042
     55 O         -1.714776   0.238545   -0.33101 O.2        1 UNL1     -0.2512
     56 C         -2.434132   -0.688346   -2.376687 C.3        1 UNL1     0.0332
     57 C         -0.48976   4.105052   -0.831288 C.3        1 UNL1     -0.0567
     58 C         6.75804   2.485608   -2.03469 C.3        1 UNL1     0.0210
     59 C         1.551541   5.249689   -2.516147 C.3        1 UNL1     0.0372
     60 C         3.971618   3.106716   -1.424535 C.2        1 UNL1     -0.0208
     61 C         4.502987   3.925941   -0.516096 C.2        1 UNL1     0.0882
     62 H         4.469885   1.185548   2.886029 H        1 UNL1     0.0365
     63 H         6.357697   0.701399   3.495943 H        1 UNL1     0.0576
     64 H         6.303984   -1.545289   5.604564 H        1 UNL1     0.0615
     65 H         8.628286   -0.053012   4.145596 H        1 UNL1     0.0622
     66 H         2.897929   3.414058   -3.177496 H        1 UNL1     0.0645
     67 H         1.834237   1.582213   -3.292001 H        1 UNL1     0.0362
     68 H         -0.020745   2.554647   -2.636724 H        1 UNL1     0.0741
     69 H         -1.120487   2.27067   -0.241664 H        1 UNL1     0.0359
     70 H         -0.024193   2.670306   1.665676 H        1 UNL1     0.0600
     71 H         0.238256   0.583341   2.195212 H        1 UNL1     0.0348
     72 H         2.513906   1.323656   2.648418 H        1 UNL1     0.0602
     73 H         4.556986   2.324938   -1.840969 H        1 UNL1     0.0628
     74 H         3.953309   4.713418   0.000596 H        1 UNL1     0.1022
     75 H         9.618173   -2.854599   6.963235 H        1 UNL1     0.0279
     76 H         9.641989   -3.883451   5.586936 H        1 UNL1     0.0279
     77 H         11.081592   -2.898961   6.070281 H        1 UNL1     0.0279
     78 H         10.516124   -3.071262   3.218779 H        1 UNL1     0.1553
     79 H         8.572209   -3.356359   2.961603 H        1 UNL1     0.1484
     80 H         6.02842   -3.224458   0.141809 H        1 UNL1     0.0317
     81 H         7.741646   -2.92115   -0.108764 H        1 UNL1     0.0317
     82 H         8.359334   -4.76012   1.481945 H        1 UNL1     0.0428
     83 H         7.348171   -5.315152   0.166197 H        1 UNL1     0.0428
     84 H         5.410889   -4.603618   3.886922 H        1 UNL1     0.0428
     85 H         7.119821   -4.344386   3.84857 H        1 UNL1     0.0428
     86 H         5.665415   -2.326313   3.656387 H        1 UNL1     0.0317
     87 H         4.921923   -2.876063   2.225531 H        1 UNL1     0.0317
     88 H         7.441972   -6.837352   2.466788 H        1 UNL1     0.0429
     89 H         5.82263   -6.829648   3.169574 H        1 UNL1     0.0429
     90 H         5.327899   -6.666477   0.399312 H        1 UNL1     0.0308
     91 H         6.724011   -8.518676   -0.605826 H        1 UNL1     0.0233
     92 H         7.71031   -7.10606   -0.150605 H        1 UNL1     0.0233
     93 H         7.731641   -8.551821   0.836271 H        1 UNL1     0.0233
     94 H         5.077779   -9.323894   0.853038 H        1 UNL1     0.0233
     95 H         5.126918   -8.710377   2.513011 H        1 UNL1     0.0233
     96 H         3.898976   -8.104118   1.377846 H        1 UNL1     0.0233
     97 H         10.444504   4.200304   -1.819932 H        1 UNL1     0.0280
     98 H         10.727656   5.048194   -0.323905 H        1 UNL1     0.0280
     99 H         11.972715   3.932944   -0.960909 H        1 UNL1     0.0280
     100 H         12.77063   1.63844   1.263706 H        1 UNL1     0.2922
     101 H         4.151579   2.231313   4.998321 H        1 UNL1     0.0236
     102 H         3.110958   0.895341   5.62947 H        1 UNL1     0.0236
     103 H         2.545553   1.973878   4.391499 H        1 UNL1     0.0236
     104 H         0.943243   0.007525   3.695942 H        1 UNL1     0.2098
     105 H         1.687215   -0.272437   -0.299787 H        1 UNL1     0.0234
     106 H         0.734203   -1.276631   0.829133 H        1 UNL1     0.0234
     107 H         0.0   0.0   0.0 H        1 UNL1     0.0234
     108 H         2.387691   2.822601   1.765341 H        1 UNL1     0.2098
     109 H         3.662064   0.479978   -2.419146 H        1 UNL1     0.0234
     110 H         3.090696   0.646181   -0.728372 H        1 UNL1     0.0234
     111 H         2.234895   -0.357599   -1.845903 H        1 UNL1     0.0234
     112 H         -3.061365   -0.018162   -2.97232 H        1 UNL1     0.0342
     113 H         -1.912994   -1.403051   -3.011868 H        1 UNL1     0.0342
     114 H         -3.092026   -1.257403   -1.705484 H        1 UNL1     0.0342
     115 H         -1.299332   4.482014   -0.191223 H        1 UNL1     0.0234
     116 H         0.347987   4.799817   -0.744513 H        1 UNL1     0.0234
     117 H         -0.934278   4.231043   -1.833521 H        1 UNL1     0.0234
     118 H         6.031609   3.000582   -2.687457 H        1 UNL1     0.0309
     119 H         7.73485   2.469786   -2.528445 H        1 UNL1     0.0309
     120 H         6.403483   1.449086   -2.030663 H        1 UNL1     0.0309
     121 H         0.577504   4.959527   -2.909102 H        1 UNL1     0.0524
     122 H         1.438945   6.242523   -2.049627 H        1 UNL1     0.0524
     123 H         2.275622   5.319307   -3.322964 H        1 UNL1     0.0524
@<TRIPOS>BOND
     1     1     2    1
     2     1    42    1
     3     2     3    2
     4     3     4    1
     5     4     5    2
     6     5     7    1
     7     6    75    1
     8     6    76    1
     9     6    77    1
    10     7     9   am
    11     9    10    1
    12    10    11    2
    13    10    43    1
    14    11    14    1
    15    11    15    1
    16    12    13   ar
    17    12    27   ar
    18    12    43    1
    19    13    14    1
    20    13    30   ar
    21    14    17    2
    22    15    16    1
    23    16    17    1
    24    16    18    1
    25    16    22    1
    26    18    19    1
    27    19    20    1
    28    20    21    1
    29    21    22    1
    30    23    24    1
    31    23    88    1
    32    23    89    1
    33    24    25    1
    34    24    26    1
    35    24    90    1
    36    25    91    1
    37    25    92    1
    38    25    93    1
    39    26    94    1
    40    26    95    1
    41    26    96    1
    42    27    28   ar
    43    28    29   ar
    44    29    30   ar
    45    29    31    1
    46    30    33    1
    47    31    32    1
    48    32    33    1
    49    32    35    1
    50    34    97    1
    51    34    98    1
    52    34    99    1
    53    35    61    1
    54    36    37    1
    55    36    60    1
    56    37    38    1
    57    38    39    1
    58    39    40    1
    59    40    41    1
    60    41    42    1
    61    45   100    1
    62    47   101    1
    63    47   102    1
    64    47   103    1
    65    48   104    1
    66    49   105    1
    67    49   106    1
    68    49   107    1
    69    50   108    1
    70    51    59    1
    71    52   109    1
    72    52   110    1
    73    52   111    1
    74    53    54    1
    75    54    55    2
    76    54    56    1
    77    56   112    1
    78    56   113    1
    79    56   114    1
    80    57   115    1
    81    57   116    1
    82    57   117    1
    83    58   118    1
    84    58   119    1
    85    58   120    1
    86    59   121    1
    87    59   122    1
    88    59   123    1
    89    60    61    2
    90     1    47    1
    91     1    62    1
    92     2    63    1
    93     3    64    1
    94     4    65    1
    95     5     6    1
    96     7     8    2
    97     9    78    1
    98    15    79    1
    99    18    80    1
   100    18    81    1
   101    19    82    1
   102    19    83    1
   103    20    23    1
   104    21    84    1
   105    21    85    1
   106    22    86    1
   107    22    87    1
   108    27    45    1
   109    28    34    1
   110    32    58    1
   111    33    46    2
   112    36    51    1
   113    36    66    1
   114    37    52    1
   115    37    67    1
   116    38    53    1
   117    38    68    1
   118    42    48    1
   119    42    72    1
   120    43    44    2
   121    60    73    1
   122    61    74    1
   123    39    69    1
   124    39    57    1
   125    40    70    1
   126    40    50    1
   127    41    71    1
   128    41    49    1
