@<TRIPOS>MOLECULE
*****
 123 128 0 0 0
SMALL
GASTEIGER

@<TRIPOS>ATOM
     1 C         5.17362   1.728544   0.49234 C.3        1 UNL1     0.0009
     2 C         6.615554   2.524384   -0.358837 C.2        1 UNL1     -0.0787
     3 C         7.897645   2.417334   -1.022787 C.2        1 UNL1     -0.0649
     4 C         8.78253   3.645452   -1.781114 C.2        1 UNL1     -0.0542
     5 C         9.805168   3.929792   -2.719432 C.2        1 UNL1     0.0115
     6 C         10.930994   3.295704   -3.581855 C.3        1 UNL1     -0.0348
     7 C         9.90911   5.410664   -3.330335 C.2        1 UNL1     0.2441
     8 O         10.736939   6.229052   -2.954214 O.2        1 UNL1     -0.2702
     9 N         9.161333   5.618062   -4.502499 N.am        1 UNL1     -0.2772
     10 C         7.880345   6.012533   -4.191398 C.2        1 UNL1     0.1049
     11 C         7.029056   5.04654   -3.897485 C.2        1 UNL1     0.0801
     12 C         6.588947   7.630379   -2.787047 C.ar        1 UNL1     0.0753
     13 C         5.823372   6.507897   -2.337004 C.ar        1 UNL1     0.0305
     14 C         5.934065   5.19963   -2.978281 C.2        1 UNL1     0.0924
     15 N         7.144761   3.716448   -4.05239 N.pl3        1 UNL1     -0.3170
     16 C         5.871366   3.12502   -3.737855 C.3        1 UNL1     0.1275
     17 N         5.238962   4.086617   -2.761577 N.2        1 UNL1     -0.2557
     18 C         5.02028   3.184788   -5.00268 C.3        1 UNL1     0.0016
     19 C         5.772778   2.493243   -6.128335 C.3        1 UNL1     0.0026
     20 N         6.035123   1.114902   -5.737976 N.3        1 UNL1     -0.3018
     21 C         6.796206   0.954216   -4.497291 C.3        1 UNL1     0.0026
     22 C         6.019886   1.652293   -3.379297 C.3        1 UNL1     0.0016
     23 C         6.476508   0.289627   -6.844658 C.3        1 UNL1     0.0012
     24 C         5.320862   0.043326   -7.827295 C.3        1 UNL1     -0.0339
     25 C         5.353093   1.042798   -8.99523 C.3        1 UNL1     -0.0615
     26 C         5.353162   -1.393078   -8.319718 C.3        1 UNL1     -0.0615
     27 C         6.390444   8.900785   -2.251526 C.ar        1 UNL1     0.1347
     28 C         5.43175   9.178371   -1.293454 C.ar        1 UNL1     0.0342
     29 C         4.723622   8.049088   -0.830379 C.ar        1 UNL1     0.1435
     30 C         4.936791   6.764374   -1.331664 C.ar        1 UNL1     0.0774
     31 O         3.682285   8.170809   0.021566 O.3        1 UNL1     -0.4436
     32 C         2.954199   6.941428   -0.117669 C.3        1 UNL1     0.3143
     33 C         3.962782   5.941313   -0.64563 C.2        1 UNL1     0.2504
     34 C         4.991712   10.548177   -0.857453 C.3        1 UNL1     -0.0327
     35 O         2.589749   6.510677   1.19948 O.2        1 UNL1     -0.4528
     36 C         -0.663115   4.594616   0.80492 C.3        1 UNL1     0.0854
     37 C         -0.974132   3.332944   -0.088935 C.3        1 UNL1     0.0236
     38 C         -1.582299   2.077534   0.702155 C.3        1 UNL1     0.1131
     39 C         -0.860853   1.546713   2.006001 C.3        1 UNL1     0.0200
     40 C         0.799491   1.392435   2.049512 C.3        1 UNL1     0.0661
     41 C         1.756059   0.61493   0.884148 C.3        1 UNL1     0.0091
     42 C         3.466191   0.966648   0.320992 C.3        1 UNL1     0.0661
     43 C         7.539129   7.414186   -3.906276 C.2        1 UNL1     0.2131
     44 O         7.94461   8.307918   -4.627087 O.2        1 UNL1     -0.2851
     45 O         7.208741   9.930138   -2.712244 O.3        1 UNL1     -0.5056
     46 O         3.972198   4.738116   -0.511162 O.2        1 UNL1     -0.2836
     47 C         5.566066   1.30136   1.932299 C.3        1 UNL1     -0.0566
     48 O         3.907123   -0.446574   0.407598 O.3        1 UNL1     -0.3909
     49 C         0.922037   0.383002   -0.356058 C.3        1 UNL1     -0.0577
     50 O         1.405741   2.608274   2.439281 O.3        1 UNL1     -0.3910
     51 O         -0.789778   4.409866   2.196773 O.3        1 UNL1     -0.3753
     52 C         0.070746   3.163375   -1.239771 C.3        1 UNL1     -0.0564
     53 O         -2.189429   1.039031   -0.195191 O.3        1 UNL1     -0.4608
     54 C         -2.431195   -0.265405   0.148211 C.2        1 UNL1     0.3042
     55 O         -1.866949   -1.268894   -0.285926 O.2        1 UNL1     -0.2512
     56 C         -3.473286   -0.422216   1.218805 C.3        1 UNL1     0.0332
     57 C         -1.579715   2.223405   3.264374 C.3        1 UNL1     -0.0567
     58 C         1.881546   7.188931   -1.203803 C.3        1 UNL1     0.0210
     59 C         -1.128457   5.586574   2.929247 C.3        1 UNL1     0.0372
     60 C         0.66948   5.215889   0.573894 C.2        1 UNL1     -0.0208
     61 C         1.583751   5.648905   1.443003 C.2        1 UNL1     0.0882
     62 H         4.702866   2.715506   0.576056 H        1 UNL1     0.0365
     63 H         6.354821   3.579907   -0.257059 H        1 UNL1     0.0576
     64 H         8.350377   1.447382   -1.240355 H        1 UNL1     0.0615
     65 H         8.299955   4.564494   -1.437652 H        1 UNL1     0.0622
     66 H         -1.403419   5.344154   0.491568 H        1 UNL1     0.0645
     67 H         -1.837331   3.64505   -0.702154 H        1 UNL1     0.0362
     68 H         -2.527415   2.520536   1.051478 H        1 UNL1     0.0741
     69 H         -1.197991   0.538004   2.20412 H        1 UNL1     0.0359
     70 H         0.906752   0.734223   2.932865 H        1 UNL1     0.0600
     71 H         1.793708   -0.405139   1.314263 H        1 UNL1     0.0348
     72 H         3.361824   1.458414   1.299046 H        1 UNL1     0.0602
     73 H         0.789586   5.409325   -0.463123 H        1 UNL1     0.0628
     74 H         1.563884   5.441621   2.51346 H        1 UNL1     0.1022
     75 H         10.969398   2.190679   -3.425403 H        1 UNL1     0.0279
     76 H         10.81901   3.375789   -4.660797 H        1 UNL1     0.0279
     77 H         11.937316   3.596039   -3.255031 H        1 UNL1     0.0279
     78 H         9.095272   4.74685   -5.024708 H        1 UNL1     0.1553
     79 H         7.808424   3.283018   -4.667713 H        1 UNL1     0.1484
     80 H         4.056173   2.699592   -4.808131 H        1 UNL1     0.0317
     81 H         4.799516   4.221899   -5.277115 H        1 UNL1     0.0317
     82 H         6.706543   3.018804   -6.376894 H        1 UNL1     0.0428
     83 H         5.148925   2.548984   -7.020944 H        1 UNL1     0.0428
     84 H         6.910607   -0.088409   -4.18479 H        1 UNL1     0.0428
     85 H         7.828365   1.316423   -4.60107 H        1 UNL1     0.0428
     86 H         6.533951   1.401966   -2.469867 H        1 UNL1     0.0317
     87 H         5.037765   1.180279   -3.253852 H        1 UNL1     0.0317
     88 H         7.276042   0.825543   -7.372704 H        1 UNL1     0.0429
     89 H         6.903652   -0.65736   -6.490344 H        1 UNL1     0.0429
     90 H         4.367992   0.156753   -7.296838 H        1 UNL1     0.0308
     91 H         6.303559   0.993337   -9.534924 H        1 UNL1     0.0233
     92 H         4.534402   0.84899   -9.692219 H        1 UNL1     0.0233
     93 H         5.230813   2.080095   -8.660717 H        1 UNL1     0.0233
     94 H         4.657132   -1.521505   -9.155712 H        1 UNL1     0.0233
     95 H         6.356612   -1.643808   -8.674942 H        1 UNL1     0.0233
     96 H         5.074153   -2.093008   -7.527114 H        1 UNL1     0.0233
     97 H         4.197294   10.504909   -0.11836 H        1 UNL1     0.0280
     98 H         5.806973   11.115312   -0.389518 H        1 UNL1     0.0280
     99 H         4.622024   11.11202   -1.729524 H        1 UNL1     0.0280
     100 H         6.746087   10.682236   -3.037702 H        1 UNL1     0.2922
     101 H         4.700386   0.873887   2.437791 H        1 UNL1     0.0236
     102 H         6.020496   2.106064   2.509298 H        1 UNL1     0.0236
     103 H         6.318018   0.494665   1.934519 H        1 UNL1     0.0236
     104 H         4.325004   -0.572112   1.282004 H        1 UNL1     0.2098
     105 H         0.70977   1.282076   -0.929137 H        1 UNL1     0.0234
     106 H         1.291301   -0.404931   -1.012361 H        1 UNL1     0.0234
     107 H         0.0   -0.0   0.0 H        1 UNL1     0.0234
     108 H         1.21208   3.26525   1.743116 H        1 UNL1     0.2098
     109 H         1.094536   3.045603   -0.858071 H        1 UNL1     0.0234
     110 H         -0.165353   2.33544   -1.916915 H        1 UNL1     0.0234
     111 H         0.097378   4.04405   -1.895248 H        1 UNL1     0.0234
     112 H         -3.611713   -1.48254   1.45096 H        1 UNL1     0.0342
     113 H         -3.22805   0.145252   2.115288 H        1 UNL1     0.0342
     114 H         -4.425397   -0.035473   0.830115 H        1 UNL1     0.0342
     115 H         -2.650691   1.980958   3.302033 H        1 UNL1     0.0234
     116 H         -1.145827   1.944279   4.226601 H        1 UNL1     0.0234
     117 H         -1.612376   3.325296   3.212317 H        1 UNL1     0.0234
     118 H         0.982626   7.681905   -0.794015 H        1 UNL1     0.0309
     119 H         2.25499   7.772327   -2.051383 H        1 UNL1     0.0309
     120 H         1.488478   6.257755   -1.626312 H        1 UNL1     0.0309
     121 H         -0.320228   6.304408   2.791993 H        1 UNL1     0.0524
     122 H         -2.055709   6.056251   2.560948 H        1 UNL1     0.0524
     123 H         -1.246585   5.352146   3.983374 H        1 UNL1     0.0524
@<TRIPOS>BOND
     1     1     2    1
     2     1    42    1
     3     2     3    2
     4     3     4    1
     5     4     5    2
     6     5     7    1
     7     6    75    1
     8     6    76    1
     9     6    77    1
    10     7     9   am
    11     9    10    1
    12    10    11    2
    13    10    43    1
    14    11    14    1
    15    11    15    1
    16    12    13   ar
    17    12    27   ar
    18    12    43    1
    19    13    14    1
    20    13    30   ar
    21    14    17    2
    22    15    16    1
    23    16    17    1
    24    16    18    1
    25    16    22    1
    26    18    19    1
    27    19    20    1
    28    20    21    1
    29    21    22    1
    30    23    24    1
    31    23    88    1
    32    23    89    1
    33    24    25    1
    34    24    26    1
    35    24    90    1
    36    25    91    1
    37    25    92    1
    38    25    93    1
    39    26    94    1
    40    26    95    1
    41    26    96    1
    42    27    28   ar
    43    28    29   ar
    44    29    30   ar
    45    29    31    1
    46    30    33    1
    47    31    32    1
    48    32    33    1
    49    32    35    1
    50    34    97    1
    51    34    98    1
    52    34    99    1
    53    35    61    1
    54    36    37    1
    55    36    60    1
    56    37    38    1
    57    38    39    1
    58    39    40    1
    59    40    41    1
    60    41    42    1
    61    45   100    1
    62    47   101    1
    63    47   102    1
    64    47   103    1
    65    48   104    1
    66    49   105    1
    67    49   106    1
    68    49   107    1
    69    50   108    1
    70    51    59    1
    71    52   109    1
    72    52   110    1
    73    52   111    1
    74    53    54    1
    75    54    55    2
    76    54    56    1
    77    56   112    1
    78    56   113    1
    79    56   114    1
    80    57   115    1
    81    57   116    1
    82    57   117    1
    83    58   118    1
    84    58   119    1
    85    58   120    1
    86    59   121    1
    87    59   122    1
    88    59   123    1
    89    60    61    2
    90     1    47    1
    91     1    62    1
    92     2    63    1
    93     3    64    1
    94     4    65    1
    95     5     6    1
    96     7     8    2
    97     9    78    1
    98    15    79    1
    99    18    80    1
   100    18    81    1
   101    19    82    1
   102    19    83    1
   103    20    23    1
   104    21    84    1
   105    21    85    1
   106    22    86    1
   107    22    87    1
   108    27    45    1
   109    28    34    1
   110    32    58    1
   111    33    46    2
   112    36    51    1
   113    36    66    1
   114    37    52    1
   115    37    67    1
   116    38    53    1
   117    38    68    1
   118    42    48    1
   119    42    72    1
   120    43    44    2
   121    60    73    1
   122    61    74    1
   123    39    69    1
   124    39    57    1
   125    40    70    1
   126    40    50    1
   127    41    71    1
   128    41    49    1
