@<TRIPOS>MOLECULE
*****
 123 128 0 0 0
SMALL
GASTEIGER

@<TRIPOS>ATOM
     1 C         -0.393366   -5.029851   -2.10118 C.3        1 UNL1     0.0009
     2 C         -0.5231   -6.015618   -3.665939 C.2        1 UNL1     -0.0787
     3 C         -1.306498   -6.809464   -4.589055 C.2        1 UNL1     -0.0649
     4 C         -0.835365   -7.419096   -6.096616 C.2        1 UNL1     -0.0542
     5 C         -1.292037   -7.919732   -7.340759 C.2        1 UNL1     0.0115
     6 C         -2.548392   -8.403845   -8.115699 C.3        1 UNL1     -0.0348
     7 C         -0.276697   -7.955535   -8.583655 C.2        1 UNL1     0.2441
     8 O         0.27888   -8.97847   -8.959774 O.2        1 UNL1     -0.2702
     9 N         -0.269071   -6.791435   -9.371667 N.am        1 UNL1     -0.2772
     10 C         0.631765   -5.879212   -8.872001 C.2        1 UNL1     0.1049
     11 C         0.203862   -5.123883   -7.876712 C.2        1 UNL1     0.0801
     12 C         2.993359   -5.653914   -8.078623 C.ar        1 UNL1     0.0753
     13 C         2.458198   -5.021638   -6.911387 C.ar        1 UNL1     0.0305
     14 C         1.055765   -4.618776   -6.834357 C.2        1 UNL1     0.0924
     15 N         -1.040027   -4.947669   -7.398991 N.pl3        1 UNL1     -0.3170
     16 C         -0.990416   -3.891504   -6.423129 C.3        1 UNL1     0.1275
     17 N         0.418292   -3.941181   -5.883873 N.2        1 UNL1     -0.2557
     18 C         -1.108181   -2.571511   -7.179074 C.3        1 UNL1     0.0016
     19 C         -2.380948   -2.598973   -8.010279 C.3        1 UNL1     0.0026
     20 N         -3.516719   -2.796196   -7.120247 N.3        1 UNL1     -0.3018
     21 C         -3.463481   -4.010902   -6.304145 C.3        1 UNL1     0.0026
     22 C         -2.179607   -3.960115   -5.474095 C.3        1 UNL1     0.0016
     23 C         -4.789395   -2.540429   -7.764858 C.3        1 UNL1     0.0012
     24 C         -5.273106   -3.790355   -8.516832 C.3        1 UNL1     -0.0339
     25 C         -6.041573   -3.415584   -9.794745 C.3        1 UNL1     -0.0615
     26 C         -4.097846   -4.703764   -8.818871 C.3        1 UNL1     -0.0615
     27 C         4.354801   -5.925271   -8.192455 C.ar        1 UNL1     0.1347
     28 C         5.280852   -5.576305   -7.225655 C.ar        1 UNL1     0.0342
     29 C         4.724617   -4.999137   -6.064344 C.ar        1 UNL1     0.1435
     30 C         3.358338   -4.754249   -5.921051 C.ar        1 UNL1     0.0774
     31 O         5.50602   -4.504788   -5.07944 O.3        1 UNL1     -0.4436
     32 C         4.648655   -3.615329   -4.348235 C.3        1 UNL1     0.3143
     33 C         3.240791   -4.095846   -4.63674 C.2        1 UNL1     0.2504
     34 C         6.77547   -5.606135   -7.3848 C.3        1 UNL1     -0.0327
     35 O         4.889339   -3.842001   -2.953982 O.2        1 UNL1     -0.4528
     36 C         4.225555   -0.525691   -1.23074 C.3        1 UNL1     0.0854
     37 C         2.917181   0.355026   -1.235031 C.3        1 UNL1     0.0236
     38 C         2.338191   0.712285   0.217168 C.3        1 UNL1     0.1131
     39 C         2.109439   -0.440023   1.276474 C.3        1 UNL1     0.0200
     40 C         1.414083   -1.884753   0.816396 C.3        1 UNL1     0.0661
     41 C         -0.018492   -2.05854   -0.075309 C.3        1 UNL1     0.0091
     42 C         -0.518426   -3.343341   -1.285579 C.3        1 UNL1     0.0661
     43 C         2.063849   -5.930164   -9.201991 C.2        1 UNL1     0.2131
     44 O         2.427559   -6.0874   -10.353394 O.2        1 UNL1     -0.2851
     45 O         4.787388   -6.584212   -9.341413 O.3        1 UNL1     -0.5056
     46 O         2.249872   -3.980749   -3.950674 O.2        1 UNL1     -0.2836
     47 C         -0.368052   -5.974306   -0.869374 C.3        1 UNL1     -0.0566
     48 O         -1.858331   -3.550045   -0.68471 O.3        1 UNL1     -0.3909
     49 C         -0.384578   -0.719835   -0.67643 C.3        1 UNL1     -0.0577
     50 O         2.394476   -2.782073   0.335385 O.3        1 UNL1     -0.3910
     51 O         4.622967   -1.032414   0.023344 O.3        1 UNL1     -0.3753
     52 C         1.983233   0.003639   -2.438865 C.3        1 UNL1     -0.0564
     53 O         1.324056   1.818485   0.203898 O.3        1 UNL1     -0.4608
     54 C         -0.025393   1.66224   0.384186 C.2        1 UNL1     0.3042
     55 O         -0.656791   1.776318   1.434025 O.2        1 UNL1     -0.2512
     56 C         -0.772656   1.37482   -0.886917 C.3        1 UNL1     0.0332
     57 C         3.406556   -0.501184   2.210242 C.3        1 UNL1     -0.0567
     58 C         4.835704   -2.213934   -4.974841 C.3        1 UNL1     0.0210
     59 C         4.975237   -2.415078   0.026832 C.3        1 UNL1     0.0372
     60 C         4.211801   -1.676846   -2.174039 C.2        1 UNL1     -0.0208
     61 C         4.586614   -2.944424   -1.996538 C.2        1 UNL1     0.0882
     62 H         0.652213   -4.810363   -2.348771 H        1 UNL1     0.0365
     63 H         0.515068   -5.998298   -4.004136 H        1 UNL1     0.0576
     64 H         -2.380426   -6.953756   -4.451339 H        1 UNL1     0.0615
     65 H         0.251435   -7.29932   -6.098078 H        1 UNL1     0.0622
     66 H         5.014155   0.149787   -1.591135 H        1 UNL1     0.0645
     67 H         3.261101   1.344338   -1.583659 H        1 UNL1     0.0362
     68 H         3.177932   1.306297   0.608968 H        1 UNL1     0.0741
     69 H         1.430332   -0.082165   2.038812 H        1 UNL1     0.0359
     70 H         1.13463   -2.286551   1.809132 H        1 UNL1     0.0600
     71 H         -0.752519   -2.133495   0.750853 H        1 UNL1     0.0348
     72 H         0.301998   -3.781949   -0.699196 H        1 UNL1     0.0602
     73 H         3.954826   -1.330364   -3.144174 H        1 UNL1     0.0628
     74 H         4.809046   -3.391724   -1.027165 H        1 UNL1     0.1022
     75 H         -3.459332   -7.862968   -7.762606 H        1 UNL1     0.0279
     76 H         -2.562031   -8.211641   -9.186185 H        1 UNL1     0.0279
     77 H         -2.81327   -9.446627   -7.887345 H        1 UNL1     0.0279
     78 H         -1.189344   -6.357079   -9.349092 H        1 UNL1     0.1553
     79 H         -1.871424   -5.174234   -7.91317 H        1 UNL1     0.1484
     80 H         -1.118926   -1.745875   -6.457288 H        1 UNL1     0.0317
     81 H         -0.238347   -2.411677   -7.82521 H        1 UNL1     0.0317
     82 H         -2.344727   -3.379314   -8.784661 H        1 UNL1     0.0428
     83 H         -2.444274   -1.649263   -8.542342 H        1 UNL1     0.0428
     84 H         -4.287   -4.094763   -5.588187 H        1 UNL1     0.0428
     85 H         -3.549034   -4.919032   -6.916761 H        1 UNL1     0.0428
     86 H         -2.239574   -4.791826   -4.796859 H        1 UNL1     0.0317
     87 H         -2.198161   -3.088738   -4.808172 H        1 UNL1     0.0317
     88 H         -5.52343   -2.295112   -6.986201 H        1 UNL1     0.0429
     89 H         -4.729718   -1.673354   -8.435226 H        1 UNL1     0.0429
     90 H         -5.940151   -4.366297   -7.864487 H        1 UNL1     0.0308
     91 H         -5.512603   -2.646775   -10.365907 H        1 UNL1     0.0233
     92 H         -6.190415   -4.293672   -10.427531 H        1 UNL1     0.0233
     93 H         -7.041829   -3.020442   -9.579837 H        1 UNL1     0.0233
     94 H         -4.340722   -5.36761   -9.655624 H        1 UNL1     0.0233
     95 H         -3.225453   -4.108622   -9.102946 H        1 UNL1     0.0233
     96 H         -3.838329   -5.319623   -7.953228 H        1 UNL1     0.0233
     97 H         7.084286   -6.232926   -8.216061 H        1 UNL1     0.0280
     98 H         7.189836   -4.610251   -7.589186 H        1 UNL1     0.0280
     99 H         7.236783   -6.000528   -6.464615 H        1 UNL1     0.0280
     100 H         5.361764   -7.312493   -9.182285 H        1 UNL1     0.2922
     101 H         -0.919618   -6.886887   -1.094379 H        1 UNL1     0.0236
     102 H         -0.721934   -5.497193   0.043924 H        1 UNL1     0.0236
     103 H         0.652888   -6.316065   -0.63047 H        1 UNL1     0.0236
     104 H         -1.806407   -4.340911   -0.113042 H        1 UNL1     0.2098
     105 H         0.056987   -0.529491   -1.651418 H        1 UNL1     0.0234
     106 H         -1.453343   -0.507204   -0.697739 H        1 UNL1     0.0234
     107 H         0.0   0.0   0.0 H        1 UNL1     0.0234
     108 H         2.662524   -2.471139   -0.550752 H        1 UNL1     0.2098
     109 H         1.166994   0.729794   -2.557875 H        1 UNL1     0.0234
     110 H         2.522878   -0.099594   -3.386425 H        1 UNL1     0.0234
     111 H         1.496308   -0.971138   -2.302262 H        1 UNL1     0.0234
     112 H         -0.233677   0.625092   -1.474076 H        1 UNL1     0.0342
     113 H         -1.797574   1.059601   -0.697116 H        1 UNL1     0.0342
     114 H         -0.813026   2.300167   -1.477906 H        1 UNL1     0.0342
     115 H         3.882982   0.483578   2.312472 H        1 UNL1     0.0234
     116 H         3.21191   -0.87782   3.216377 H        1 UNL1     0.0234
     117 H         4.231772   -1.093371   1.778647 H        1 UNL1     0.0234
     118 H         4.701497   -2.228473   -6.070643 H        1 UNL1     0.0309
     119 H         4.172234   -1.458081   -4.542756 H        1 UNL1     0.0309
     120 H         5.854226   -1.830287   -4.850203 H        1 UNL1     0.0309
     121 H         4.811758   -2.79441   1.035166 H        1 UNL1     0.0524
     122 H         4.346266   -3.008784   -0.657234 H        1 UNL1     0.0524
     123 H         6.016923   -2.53825   -0.255681 H        1 UNL1     0.0524
@<TRIPOS>BOND
     1     1     2    1
     2     1    42    1
     3     2     3    2
     4     3     4    1
     5     4     5    2
     6     5     7    1
     7     6    75    1
     8     6    76    1
     9     6    77    1
    10     7     9   am
    11     9    10    1
    12    10    11    2
    13    10    43    1
    14    11    14    1
    15    11    15    1
    16    12    13   ar
    17    12    27   ar
    18    12    43    1
    19    13    14    1
    20    13    30   ar
    21    14    17    2
    22    15    16    1
    23    16    17    1
    24    16    18    1
    25    16    22    1
    26    18    19    1
    27    19    20    1
    28    20    21    1
    29    21    22    1
    30    23    24    1
    31    23    88    1
    32    23    89    1
    33    24    25    1
    34    24    26    1
    35    24    90    1
    36    25    91    1
    37    25    92    1
    38    25    93    1
    39    26    94    1
    40    26    95    1
    41    26    96    1
    42    27    28   ar
    43    28    29   ar
    44    29    30   ar
    45    29    31    1
    46    30    33    1
    47    31    32    1
    48    32    33    1
    49    32    35    1
    50    34    97    1
    51    34    98    1
    52    34    99    1
    53    35    61    1
    54    36    37    1
    55    36    60    1
    56    37    38    1
    57    38    39    1
    58    39    40    1
    59    40    41    1
    60    41    42    1
    61    45   100    1
    62    47   101    1
    63    47   102    1
    64    47   103    1
    65    48   104    1
    66    49   105    1
    67    49   106    1
    68    49   107    1
    69    50   108    1
    70    51    59    1
    71    52   109    1
    72    52   110    1
    73    52   111    1
    74    53    54    1
    75    54    55    2
    76    54    56    1
    77    56   112    1
    78    56   113    1
    79    56   114    1
    80    57   115    1
    81    57   116    1
    82    57   117    1
    83    58   118    1
    84    58   119    1
    85    58   120    1
    86    59   121    1
    87    59   122    1
    88    59   123    1
    89    60    61    2
    90     1    47    1
    91     1    62    1
    92     2    63    1
    93     3    64    1
    94     4    65    1
    95     5     6    1
    96     7     8    2
    97     9    78    1
    98    15    79    1
    99    18    80    1
   100    18    81    1
   101    19    82    1
   102    19    83    1
   103    20    23    1
   104    21    84    1
   105    21    85    1
   106    22    86    1
   107    22    87    1
   108    27    45    1
   109    28    34    1
   110    32    58    1
   111    33    46    2
   112    36    51    1
   113    36    66    1
   114    37    52    1
   115    37    67    1
   116    38    53    1
   117    38    68    1
   118    42    48    1
   119    42    72    1
   120    43    44    2
   121    60    73    1
   122    61    74    1
   123    39    69    1
   124    39    57    1
   125    40    70    1
   126    40    50    1
   127    41    71    1
   128    41    49    1
