@<TRIPOS>MOLECULE
*****
 123 128 0 0 0
SMALL
GASTEIGER

@<TRIPOS>ATOM
     1 C         -0.142802   4.037624   -1.282687 C.3        1 UNL1     0.0009
     2 C         -1.552161   4.912395   -2.110648 C.2        1 UNL1     -0.0787
     3 C         -2.156943   5.474317   -3.299988 C.2        1 UNL1     -0.0649
     4 C         -3.712043   6.121701   -3.470038 C.2        1 UNL1     -0.0542
     5 C         -4.734035   6.461289   -4.390522 C.2        1 UNL1     0.0115
     6 C         -5.063495   6.619447   -5.900411 C.3        1 UNL1     -0.0348
     7 C         -6.227709   6.68331   -3.845883 C.2        1 UNL1     0.2441
     8 O         -6.718131   7.791906   -3.681484 O.2        1 UNL1     -0.2702
     9 N         -7.022999   5.524466   -3.818589 N.am        1 UNL1     -0.2772
     10 C         -6.861396   4.859155   -2.625036 C.2        1 UNL1     0.1049
     11 C         -5.811963   4.061796   -2.540593 C.2        1 UNL1     0.0801
     12 C         -6.846411   5.204855   -0.147618 C.ar        1 UNL1     0.0753
     13 C         -5.595752   4.508904   -0.136911 C.ar        1 UNL1     0.0305
     14 C         -5.104114   3.800637   -1.316615 C.2        1 UNL1     0.0924
     15 N         -4.980016   3.624245   -3.501291 N.pl3        1 UNL1     -0.3170
     16 C         -4.108128   2.64203   -2.913653 C.3        1 UNL1     0.1275
     17 N         -4.029494   3.029693   -1.4572 N.2        1 UNL1     -0.2557
     18 C         -4.84008   1.30409   -2.956834 C.3        1 UNL1     0.0016
     19 C         -5.235246   1.01214   -4.395653 C.3        1 UNL1     0.0026
     20 N         -4.030789   0.977094   -5.213628 N.3        1 UNL1     -0.3018
     21 C         -3.225711   2.200015   -5.187511 C.3        1 UNL1     0.0026
     22 C         -2.835962   2.47175   -3.733499 C.3        1 UNL1     0.0016
     23 C         -4.259418   0.4161   -6.530313 C.3        1 UNL1     0.0012
     24 C         -4.525873   -1.094319   -6.433398 C.3        1 UNL1     -0.0339
     25 C         -3.964273   -1.843817   -7.652789 C.3        1 UNL1     -0.0615
     26 C         -3.961805   -1.640275   -5.133191 C.3        1 UNL1     -0.0615
     27 C         -7.36533   5.774528   1.012689 C.ar        1 UNL1     0.1347
     28 C         -6.746285   5.679525   2.246305 C.ar        1 UNL1     0.0342
     29 C         -5.492649   5.032202   2.22321 C.ar        1 UNL1     0.1435
     30 C         -4.943236   4.488223   1.06155 C.ar        1 UNL1     0.0774
     31 O         -4.81718   4.763459   3.361861 O.3        1 UNL1     -0.4436
     32 C         -3.890954   3.728618   2.998431 C.3        1 UNL1     0.3143
     33 C         -3.711473   3.865933   1.500051 C.2        1 UNL1     0.2504
     34 C         -7.358607   6.042844   3.570375 C.3        1 UNL1     -0.0327
     35 O         -2.631945   4.052983   3.600873 O.2        1 UNL1     -0.4528
     36 C         -0.914967   0.735333   4.274127 C.3        1 UNL1     0.0854
     37 C         -0.547812   -0.419435   3.264557 C.3        1 UNL1     0.0236
     38 C         0.997608   -0.847692   3.260594 C.3        1 UNL1     0.1131
     39 C         2.118626   0.258932   3.115782 C.3        1 UNL1     0.0200
     40 C         1.951288   1.49058   2.003361 C.3        1 UNL1     0.0661
     41 C         1.553605   1.302558   0.365037 C.3        1 UNL1     0.0091
     42 C         0.606917   2.396622   -0.762886 C.3        1 UNL1     0.0661
     43 C         -7.615918   5.2228   -1.416395 C.2        1 UNL1     0.2131
     44 O         -8.816524   5.418026   -1.472698 O.2        1 UNL1     -0.2851
     45 O         -8.565887   6.473746   0.906873 O.3        1 UNL1     -0.5056
     46 O         -2.75747   3.552714   0.823571 O.2        1 UNL1     -0.2836
     47 C         1.055673   5.005818   -1.092319 C.3        1 UNL1     -0.0566
     48 O         1.600097   2.314208   -1.861029 O.3        1 UNL1     -0.3909
     49 C         1.044857   -0.104615   0.144739 C.3        1 UNL1     -0.0577
     50 O         1.225051   2.569848   2.556067 O.3        1 UNL1     -0.3910
     51 O         0.173   1.362944   4.914333 O.3        1 UNL1     -0.3753
     52 C         -1.389558   -0.332209   1.949717 C.3        1 UNL1     -0.0564
     53 O         1.256683   -2.155296   2.571117 O.3        1 UNL1     -0.4608
     54 C         2.365172   -2.941407   2.747786 C.2        1 UNL1     0.3042
     55 O         3.331487   -3.050188   1.993969 O.2        1 UNL1     -0.2512
     56 C         2.37107   -3.688576   4.051019 C.3        1 UNL1     0.0332
     57 C         2.60708   0.646271   4.588724 C.3        1 UNL1     -0.0567
     58 C         -4.59736   2.385327   3.295229 C.3        1 UNL1     0.0210
     59 C         0.318854   1.045344   6.297706 C.3        1 UNL1     0.0372
     60 C         -1.763399   1.819288   3.70812 C.2        1 UNL1     -0.0208
     61 C         -1.66258   3.144328   3.821473 C.2        1 UNL1     0.0882
     62 H         -0.709751   4.05309   -0.34405 H        1 UNL1     0.0365
     63 H         -2.195247   5.119731   -1.252788 H        1 UNL1     0.0576
     64 H         -1.688484   5.375361   -4.281752 H        1 UNL1     0.0615
     65 H         -4.054082   6.252235   -2.43977 H        1 UNL1     0.0622
     66 H         -1.526923   0.244639   5.044046 H        1 UNL1     0.0645
     67 H         -1.022965   -1.31625   3.698737 H        1 UNL1     0.0362
     68 H         1.087676   -1.221019   4.292116 H        1 UNL1     0.0741
     69 H         3.039467   -0.216942   2.805936 H        1 UNL1     0.0359
     70 H         2.996267   1.852964   1.961463 H        1 UNL1     0.0600
     71 H         2.568491   1.237638   -0.073996 H        1 UNL1     0.0348
     72 H         0.927017   3.030655   0.07667 H        1 UNL1     0.0602
     73 H         -2.618908   1.389542   3.249131 H        1 UNL1     0.0628
     74 H         -0.793289   3.664305   4.225449 H        1 UNL1     0.1022
     75 H         -4.265014   7.205091   -6.416632 H        1 UNL1     0.0279
     76 H         -5.099626   5.704525   -6.487506 H        1 UNL1     0.0279
     77 H         -5.945777   7.251346   -6.079251 H        1 UNL1     0.0279
     78 H         -6.733413   4.893282   -4.562783 H        1 UNL1     0.1553
     79 H         -5.202887   3.637578   -4.479598 H        1 UNL1     0.1484
     80 H         -4.182212   0.523555   -2.555909 H        1 UNL1     0.0317
     81 H         -5.729121   1.323625   -2.3174 H        1 UNL1     0.0317
     82 H         -5.952689   1.752539   -4.779057 H        1 UNL1     0.0428
     83 H         -5.757255   0.054801   -4.403297 H        1 UNL1     0.0428
     84 H         -2.287529   2.119533   -5.745317 H        1 UNL1     0.0428
     85 H         -3.746933   3.042771   -5.662281 H        1 UNL1     0.0428
     86 H         -2.142352   3.291326   -3.767976 H        1 UNL1     0.0317
     87 H         -2.230496   1.642961   -3.346696 H        1 UNL1     0.0317
     88 H         -5.146517   0.900702   -6.958695 H        1 UNL1     0.0429
     89 H         -3.419981   0.627614   -7.205132 H        1 UNL1     0.0429
     90 H         -5.607784   -1.265872   -6.385946 H        1 UNL1     0.0308
     91 H         -2.946543   -1.517083   -7.886394 H        1 UNL1     0.0233
     92 H         -3.963244   -2.922051   -7.476662 H        1 UNL1     0.0233
     93 H         -4.565459   -1.68204   -8.555695 H        1 UNL1     0.0233
     94 H         -3.793061   -2.719223   -5.218245 H        1 UNL1     0.0233
     95 H         -3.001552   -1.165142   -4.913814 H        1 UNL1     0.0233
     96 H         -4.643172   -1.461962   -4.296584 H        1 UNL1     0.0233
     97 H         -7.377558   5.20045   4.255387 H        1 UNL1     0.0280
     98 H         -6.796552   6.834429   4.08296 H        1 UNL1     0.0280
     99 H         -8.394676   6.386127   3.416061 H        1 UNL1     0.0280
     100 H         -8.592597   7.102148   0.206859 H        1 UNL1     0.2922
     101 H         1.11771   5.313333   -0.048652 H        1 UNL1     0.0236
     102 H         1.029103   5.859097   -1.769219 H        1 UNL1     0.0236
     103 H         2.021525   4.514552   -1.297208 H        1 UNL1     0.0236
     104 H         2.143549   3.125742   -1.828733 H        1 UNL1     0.2098
     105 H         1.454584   -0.598035   -0.733027 H        1 UNL1     0.0234
     106 H         1.119721   -0.757271   1.01443 H        1 UNL1     0.0234
     107 H         -0.0   0.0   0.0 H        1 UNL1     0.0234
     108 H         1.524156   3.382382   2.1043 H        1 UNL1     0.2098
     109 H         -2.468189   -0.422954   2.139539 H        1 UNL1     0.0234
     110 H         -1.194297   0.578479   1.373293 H        1 UNL1     0.0234
     111 H         -1.140554   -1.145462   1.255051 H        1 UNL1     0.0234
     112 H         3.288948   -4.277883   4.137989 H        1 UNL1     0.0342
     113 H         2.25139   -3.023494   4.904943 H        1 UNL1     0.0342
     114 H         1.521961   -4.385841   4.050593 H        1 UNL1     0.0342
     115 H         3.46697   1.329877   4.567275 H        1 UNL1     0.0234
     116 H         1.834324   1.109889   5.20513 H        1 UNL1     0.0234
     117 H         3.026069   -0.205602   5.151487 H        1 UNL1     0.0234
     118 H         -4.140931   1.856974   4.150519 H        1 UNL1     0.0309
     119 H         -5.671671   2.495192   3.474078 H        1 UNL1     0.0309
     120 H         -4.498604   1.667858   2.473285 H        1 UNL1     0.0309
     121 H         0.838586   1.876377   6.773751 H        1 UNL1     0.0524
     122 H         -0.653332   0.927651   6.804698 H        1 UNL1     0.0524
     123 H         0.890723   0.129175   6.414731 H        1 UNL1     0.0524
@<TRIPOS>BOND
     1     1     2    1
     2     1    42    1
     3     2     3    2
     4     3     4    1
     5     4     5    2
     6     5     7    1
     7     6    75    1
     8     6    76    1
     9     6    77    1
    10     7     9   am
    11     9    10    1
    12    10    11    2
    13    10    43    1
    14    11    14    1
    15    11    15    1
    16    12    13   ar
    17    12    27   ar
    18    12    43    1
    19    13    14    1
    20    13    30   ar
    21    14    17    2
    22    15    16    1
    23    16    17    1
    24    16    18    1
    25    16    22    1
    26    18    19    1
    27    19    20    1
    28    20    21    1
    29    21    22    1
    30    23    24    1
    31    23    88    1
    32    23    89    1
    33    24    25    1
    34    24    26    1
    35    24    90    1
    36    25    91    1
    37    25    92    1
    38    25    93    1
    39    26    94    1
    40    26    95    1
    41    26    96    1
    42    27    28   ar
    43    28    29   ar
    44    29    30   ar
    45    29    31    1
    46    30    33    1
    47    31    32    1
    48    32    33    1
    49    32    35    1
    50    34    97    1
    51    34    98    1
    52    34    99    1
    53    35    61    1
    54    36    37    1
    55    36    60    1
    56    37    38    1
    57    38    39    1
    58    39    40    1
    59    40    41    1
    60    41    42    1
    61    45   100    1
    62    47   101    1
    63    47   102    1
    64    47   103    1
    65    48   104    1
    66    49   105    1
    67    49   106    1
    68    49   107    1
    69    50   108    1
    70    51    59    1
    71    52   109    1
    72    52   110    1
    73    52   111    1
    74    53    54    1
    75    54    55    2
    76    54    56    1
    77    56   112    1
    78    56   113    1
    79    56   114    1
    80    57   115    1
    81    57   116    1
    82    57   117    1
    83    58   118    1
    84    58   119    1
    85    58   120    1
    86    59   121    1
    87    59   122    1
    88    59   123    1
    89    60    61    2
    90     1    47    1
    91     1    62    1
    92     2    63    1
    93     3    64    1
    94     4    65    1
    95     5     6    1
    96     7     8    2
    97     9    78    1
    98    15    79    1
    99    18    80    1
   100    18    81    1
   101    19    82    1
   102    19    83    1
   103    20    23    1
   104    21    84    1
   105    21    85    1
   106    22    86    1
   107    22    87    1
   108    27    45    1
   109    28    34    1
   110    32    58    1
   111    33    46    2
   112    36    51    1
   113    36    66    1
   114    37    52    1
   115    37    67    1
   116    38    53    1
   117    38    68    1
   118    42    48    1
   119    42    72    1
   120    43    44    2
   121    60    73    1
   122    61    74    1
   123    39    69    1
   124    39    57    1
   125    40    70    1
   126    40    50    1
   127    41    71    1
   128    41    49    1
