@<TRIPOS>MOLECULE
*****
 123 128 0 0 0
SMALL
GASTEIGER

@<TRIPOS>ATOM
     1 C         5.168584   1.742186   0.499799 C.3        1 UNL1     0.0009
     2 C         6.607795   2.546196   -0.348303 C.2        1 UNL1     -0.0787
     3 C         7.890697   2.446162   -1.011779 C.2        1 UNL1     -0.0649
     4 C         8.771064   3.67994   -1.766168 C.2        1 UNL1     -0.0542
     5 C         9.793098   3.971006   -2.703081 C.2        1 UNL1     0.0115
     6 C         10.92198   3.343862   -3.566584 C.3        1 UNL1     -0.0348
     7 C         9.891423   5.453976   -3.309811 C.2        1 UNL1     0.2441
     8 O         10.71572   6.274649   -2.930926 O.2        1 UNL1     -0.2702
     9 N         9.143504   5.661608   -4.481843 N.am        1 UNL1     -0.2772
     10 C         7.860751   6.050044   -4.170416 C.2        1 UNL1     0.1049
     11 C         7.013195   5.079813   -3.879694 C.2        1 UNL1     0.0801
     12 C         6.56201   7.658763   -2.762358 C.ar        1 UNL1     0.0753
     13 C         5.800707   6.531957   -2.315888 C.ar        1 UNL1     0.0305
     14 C         5.917055   5.225933   -2.960725 C.2        1 UNL1     0.0924
     15 N         7.134357   3.750633   -4.038218 N.pl3        1 UNL1     -0.3170
     16 C         5.863175   3.153203   -3.726088 C.3        1 UNL1     0.1275
     17 N         5.226322   4.109528   -2.747525 N.2        1 UNL1     -0.2557
     18 C         5.012598   3.213048   -4.991252 C.3        1 UNL1     0.0016
     19 C         5.768543   2.527671   -6.11837 C.3        1 UNL1     0.0026
     20 N         6.036218   1.149322   -5.731678 N.3        1 UNL1     -0.3018
     21 C         6.797214   0.988263   -4.490987 C.3        1 UNL1     0.0026
     22 C         6.017426   1.680097   -3.371527 C.3        1 UNL1     0.0016
     23 C         6.48158   0.328909   -6.84038 C.3        1 UNL1     0.0012
     24 C         5.326395   0.077041   -7.822148 C.3        1 UNL1     -0.0339
     25 C         5.350902   1.078838   -8.988278 C.3        1 UNL1     -0.0615
     26 C         5.367287   -1.358223   -8.317249 C.3        1 UNL1     -0.0615
     27 C         6.358067   8.926867   -2.223434 C.ar        1 UNL1     0.1347
     28 C         5.397698   9.197922   -1.26517 C.ar        1 UNL1     0.0342
     29 C         4.69386   8.064511   -0.805653 C.ar        1 UNL1     0.1435
     30 C         4.912507   6.782063   -1.310372 C.ar        1 UNL1     0.0774
     31 O         3.65154   8.179665   0.046002 O.3        1 UNL1     -0.4436
     32 C         2.928503   6.947748   -0.097079 C.3        1 UNL1     0.3143
     33 C         3.941424   5.953179   -0.627207 C.2        1 UNL1     0.2504
     34 C         4.951879   10.564727   -0.825635 C.3        1 UNL1     -0.0327
     35 O         2.56502   6.511876   1.218652 O.2        1 UNL1     -0.4528
     36 C         -0.679852   4.583812   0.816831 C.3        1 UNL1     0.0854
     37 C         -0.98525   3.323382   -0.080706 C.3        1 UNL1     0.0236
     38 C         -1.588811   2.063338   0.706534 C.3        1 UNL1     0.1131
     39 C         -0.865996   1.531814   2.009335 C.3        1 UNL1     0.0200
     40 C         0.794932   1.384114   2.053413 C.3        1 UNL1     0.0661
     41 C         1.755314   0.613712   0.886469 C.3        1 UNL1     0.0091
     42 C         3.464344   0.973887   0.325316 C.3        1 UNL1     0.0661
     43 C         7.513714   7.449513   -3.881613 C.2        1 UNL1     0.2131
     44 O         7.916009   8.34687   -4.599698 O.2        1 UNL1     -0.2851
     45 O         7.172474   9.960787   -2.680805 O.3        1 UNL1     -0.5056
     46 O         3.955617   4.749661   -0.496071 O.2        1 UNL1     -0.2836
     47 C         5.561903   1.312592   1.938802 C.3        1 UNL1     -0.0566
     48 O         3.910924   -0.437779   0.408266 O.3        1 UNL1     -0.3909
     49 C         0.922964   0.381865   -0.354874 C.3        1 UNL1     -0.0577
     50 O         1.396041   2.601302   2.446915 O.3        1 UNL1     -0.3910
     51 O         -0.806588   4.394689   2.20809 O.3        1 UNL1     -0.3753
     52 C         0.06098   3.161225   -1.231382 C.3        1 UNL1     -0.0564
     53 O         -2.191218   1.024889   -0.194052 O.3        1 UNL1     -0.4608
     54 C         -2.415813   -0.284716   0.141242 C.2        1 UNL1     0.3042
     55 O         -1.84417   -1.278576   -0.305195 O.2        1 UNL1     -0.2512
     56 C         -3.44728   -0.461177   1.219041 C.3        1 UNL1     0.0332
     57 C         -1.588321   2.202104   3.269149 C.3        1 UNL1     -0.0567
     58 C         1.855498   7.193937   -1.183164 C.3        1 UNL1     0.0210
     59 C         -1.158146   5.566284   2.942689 C.3        1 UNL1     0.0372
     60 C         0.65036   5.211094   0.588328 C.2        1 UNL1     -0.0208
     61 C         1.562365   5.64538   1.459182 C.2        1 UNL1     0.0882
     62 H         4.693801   2.727005   0.58597 H        1 UNL1     0.0365
     63 H         6.342744   3.600372   -0.243755 H        1 UNL1     0.0576
     64 H         8.347467   1.478652   -1.231766 H        1 UNL1     0.0615
     65 H         8.284583   4.596071   -1.420447 H        1 UNL1     0.0622
     66 H         -1.422991   5.331224   0.505116 H        1 UNL1     0.0645
     67 H         -1.849341   3.633704   -0.693574 H        1 UNL1     0.0362
     68 H         -2.535913   2.501552   1.056519 H        1 UNL1     0.0741
     69 H         -1.199176   0.521206   2.204454 H        1 UNL1     0.0359
     70 H         0.904329   0.72389   2.935001 H        1 UNL1     0.0600
     71 H         1.796827   -0.407387   1.313776 H        1 UNL1     0.0348
     72 H         3.357418   1.462512   1.304667 H        1 UNL1     0.0602
     73 H         0.770294   5.407891   -0.448077 H        1 UNL1     0.0628
     74 H         1.542706   5.435047   2.529047 H        1 UNL1     0.1022
     75 H         10.964752   2.23857   -3.413175 H        1 UNL1     0.0279
     76 H         10.810308   3.426488   -4.645367 H        1 UNL1     0.0279
     77 H         11.92689   3.647345   -3.238325 H        1 UNL1     0.0279
     78 H         9.081266   4.79159   -5.006506 H        1 UNL1     0.1553
     79 H         7.800126   3.321594   -4.654344 H        1 UNL1     0.1484
     80 H         4.050343   2.723429   -4.798626 H        1 UNL1     0.0317
     81 H         4.787812   4.250018   -5.262941 H        1 UNL1     0.0317
     82 H         6.700325   3.057683   -6.364911 H        1 UNL1     0.0428
     83 H         5.144995   2.583374   -7.011194 H        1 UNL1     0.0428
     84 H         6.915638   -0.054755   -4.181311 H        1 UNL1     0.0428
     85 H         7.827964   1.354918   -4.593143 H        1 UNL1     0.0428
     86 H         6.531962   1.429323   -2.462487 H        1 UNL1     0.0317
     87 H         5.037144   1.203779   -3.24798 H        1 UNL1     0.0317
     88 H         7.277069   0.870882   -7.368352 H        1 UNL1     0.0429
     89 H         6.915164   -0.615981   -6.488297 H        1 UNL1     0.0429
     90 H         4.373434   0.183415   -7.290394 H        1 UNL1     0.0308
     91 H         6.299857   1.034248   -9.531047 H        1 UNL1     0.0233
     92 H         4.530812   0.883028   -9.683058 H        1 UNL1     0.0233
     93 H         5.225479   2.114997   -8.651413 H        1 UNL1     0.0233
     94 H         4.671127   -1.489555   -9.152682 H        1 UNL1     0.0233
     95 H         6.371906   -1.601894   -8.67408 H        1 UNL1     0.0233
     96 H         5.093664   -2.061369   -7.525616 H        1 UNL1     0.0233
     97 H         4.157208   10.516202   -0.087141 H        1 UNL1     0.0280
     98 H         5.76457   11.133844   -0.355641 H        1 UNL1     0.0280
     99 H         4.580432   11.129492   -1.69636 H        1 UNL1     0.0280
     100 H         6.706976   10.71165   -3.005054 H        1 UNL1     0.2922
     101 H         4.697659   0.88023   2.442589 H        1 UNL1     0.0236
     102 H         6.012743   2.117519   2.518303 H        1 UNL1     0.0236
     103 H         6.317104   0.508935   1.939235 H        1 UNL1     0.0236
     104 H         4.328794   -0.564058   1.28257 H        1 UNL1     0.2098
     105 H         0.712475   1.280804   -0.928822 H        1 UNL1     0.0234
     106 H         1.292447   -0.406833   -1.010134 H        1 UNL1     0.0234
     107 H         0.0   -0.0   0.0 H        1 UNL1     0.0234
     108 H         1.197147   3.260342   1.754185 H        1 UNL1     0.2098
     109 H         1.084917   3.04575   -0.849375 H        1 UNL1     0.0234
     110 H         -0.17179   2.334707   -1.911404 H        1 UNL1     0.0234
     111 H         0.084994   4.044137   -1.883943 H        1 UNL1     0.0234
     112 H         -3.574402   -1.524898   1.44194 H        1 UNL1     0.0342
     113 H         -3.199366   0.099681   2.118941 H        1 UNL1     0.0342
     114 H         -4.406043   -0.079116   0.842253 H        1 UNL1     0.0342
     115 H         -2.65292   1.935082   3.31932 H        1 UNL1     0.0234
     116 H         -1.138764   1.941257   4.229309 H        1 UNL1     0.0234
     117 H         -1.64725   3.302459   3.208417 H        1 UNL1     0.0234
     118 H         0.954356   7.682141   -0.772549 H        1 UNL1     0.0309
     119 H         2.227084   7.781185   -2.028898 H        1 UNL1     0.0309
     120 H         1.46644   6.262359   -1.60849 H        1 UNL1     0.0309
     121 H         -0.358503   6.293701   2.805607 H        1 UNL1     0.0524
     122 H         -2.09123   6.025651   2.576118 H        1 UNL1     0.0524
     123 H         -1.272344   5.328939   3.996597 H        1 UNL1     0.0524
@<TRIPOS>BOND
     1     1     2    1
     2     1    42    1
     3     2     3    2
     4     3     4    1
     5     4     5    2
     6     5     7    1
     7     6    75    1
     8     6    76    1
     9     6    77    1
    10     7     9   am
    11     9    10    1
    12    10    11    2
    13    10    43    1
    14    11    14    1
    15    11    15    1
    16    12    13   ar
    17    12    27   ar
    18    12    43    1
    19    13    14    1
    20    13    30   ar
    21    14    17    2
    22    15    16    1
    23    16    17    1
    24    16    18    1
    25    16    22    1
    26    18    19    1
    27    19    20    1
    28    20    21    1
    29    21    22    1
    30    23    24    1
    31    23    88    1
    32    23    89    1
    33    24    25    1
    34    24    26    1
    35    24    90    1
    36    25    91    1
    37    25    92    1
    38    25    93    1
    39    26    94    1
    40    26    95    1
    41    26    96    1
    42    27    28   ar
    43    28    29   ar
    44    29    30   ar
    45    29    31    1
    46    30    33    1
    47    31    32    1
    48    32    33    1
    49    32    35    1
    50    34    97    1
    51    34    98    1
    52    34    99    1
    53    35    61    1
    54    36    37    1
    55    36    60    1
    56    37    38    1
    57    38    39    1
    58    39    40    1
    59    40    41    1
    60    41    42    1
    61    45   100    1
    62    47   101    1
    63    47   102    1
    64    47   103    1
    65    48   104    1
    66    49   105    1
    67    49   106    1
    68    49   107    1
    69    50   108    1
    70    51    59    1
    71    52   109    1
    72    52   110    1
    73    52   111    1
    74    53    54    1
    75    54    55    2
    76    54    56    1
    77    56   112    1
    78    56   113    1
    79    56   114    1
    80    57   115    1
    81    57   116    1
    82    57   117    1
    83    58   118    1
    84    58   119    1
    85    58   120    1
    86    59   121    1
    87    59   122    1
    88    59   123    1
    89    60    61    2
    90     1    47    1
    91     1    62    1
    92     2    63    1
    93     3    64    1
    94     4    65    1
    95     5     6    1
    96     7     8    2
    97     9    78    1
    98    15    79    1
    99    18    80    1
   100    18    81    1
   101    19    82    1
   102    19    83    1
   103    20    23    1
   104    21    84    1
   105    21    85    1
   106    22    86    1
   107    22    87    1
   108    27    45    1
   109    28    34    1
   110    32    58    1
   111    33    46    2
   112    36    51    1
   113    36    66    1
   114    37    52    1
   115    37    67    1
   116    38    53    1
   117    38    68    1
   118    42    48    1
   119    42    72    1
   120    43    44    2
   121    60    73    1
   122    61    74    1
   123    39    69    1
   124    39    57    1
   125    40    70    1
   126    40    50    1
   127    41    71    1
   128    41    49    1
