@<TRIPOS>MOLECULE
*****
 123 128 0 0 0
SMALL
GASTEIGER

@<TRIPOS>ATOM
     1 C         0.024232   -5.113469   1.903485 C.3        1 UNL1     0.0009
     2 C         -1.038178   -6.505386   2.512491 C.2        1 UNL1     -0.0787
     3 C         -1.532248   -7.326391   3.597798 C.2        1 UNL1     -0.0649
     4 C         -2.72854   -8.522825   3.536243 C.2        1 UNL1     -0.0542
     5 C         -3.653905   -9.279628   4.296524 C.2        1 UNL1     0.0115
     6 C         -4.093011   -9.643329   5.741595 C.3        1 UNL1     -0.0348
     7 C         -4.863022   -10.015881   3.539585 C.2        1 UNL1     0.2441
     8 O         -4.865225   -11.215201   3.298437 O.2        1 UNL1     -0.2702
     9 N         -6.030457   -9.244437   3.404971 N.am        1 UNL1     -0.2772
     10 C         -5.980651   -8.495228   2.251919 C.2        1 UNL1     0.1049
     11 C         -5.315407   -7.356717   2.325849 C.2        1 UNL1     0.0801
     12 C         -5.50894   -8.656225   -0.199387 C.ar        1 UNL1     0.0753
     13 C         -4.630556   -7.539852   -0.023998 C.ar        1 UNL1     0.0305
     14 C         -4.60735   -6.77243   1.219214 C.2        1 UNL1     0.0924
     15 N         -4.848571   -6.6972   3.39992 N.pl3        1 UNL1     -0.3170
     16 C         -4.350332   -5.424053   2.95147 C.3        1 UNL1     0.1275
     17 N         -3.938534   -5.662664   1.519266 N.2        1 UNL1     -0.2557
     18 C         -5.537712   -4.46757   2.89696 C.3        1 UNL1     0.0016
     19 C         -6.199952   -4.43596   4.265181 C.3        1 UNL1     0.0026
     20 N         -5.21959   -3.99861   5.249378 N.3        1 UNL1     -0.3018
     21 C         -4.011644   -4.822252   5.33214 C.3        1 UNL1     0.0026
     22 C         -3.360103   -4.836301   3.948236 C.3        1 UNL1     0.0016
     23 C         -5.816553   -3.647988   6.522698 C.3        1 UNL1     0.0012
     24 C         -7.172296   -2.956352   6.309725 C.3        1 UNL1     -0.0339
     25 C         -7.939485   -2.803058   7.633348 C.3        1 UNL1     -0.0615
     26 C         -6.97142   -1.617288   5.621729 C.3        1 UNL1     -0.0615
     27 C         -5.612722   -9.307136   -1.426441 C.ar        1 UNL1     0.1347
     28 C         -4.920956   -8.909311   -2.556594 C.ar        1 UNL1     0.0342
     29 C         -4.025668   -7.838813   -2.347653 C.ar        1 UNL1     0.1435
     30 C         -3.88434   -7.200192   -1.11501 C.ar        1 UNL1     0.0774
     31 O         -3.361337   -7.265022   -3.37451 O.3        1 UNL1     -0.4436
     32 C         -2.958568   -5.981326   -2.873735 C.3        1 UNL1     0.3143
     33 C         -2.938797   -6.132643   -1.366113 C.2        1 UNL1     0.2504
     34 C         -5.167654   -9.394831   -3.957848 C.3        1 UNL1     -0.0327
     35 O         -1.603985   -5.767816   -3.289392 O.2        1 UNL1     -0.4528
     36 C         -1.21629   -2.012594   -3.684469 C.3        1 UNL1     0.0854
     37 C         -1.45556   -0.869311   -2.624668 C.3        1 UNL1     0.0236
     38 C         -0.20706   0.110329   -2.393804 C.3        1 UNL1     0.1131
     39 C         1.222756   -0.496969   -2.095336 C.3        1 UNL1     0.0200
     40 C         1.395284   -1.766484   -1.027158 C.3        1 UNL1     0.0661
     41 C         0.744328   -1.84412   0.537399 C.3        1 UNL1     0.0091
     42 C         0.149527   -3.282158   1.508821 C.3        1 UNL1     0.0661
     43 C         -6.372415   -9.041924   0.94425 C.2        1 UNL1     0.2131
     44 O         -7.40281   -9.679654   0.824564 O.2        1 UNL1     -0.2851
     45 O         -6.456544   -10.413445   -1.500485 O.3        1 UNL1     -0.5056
     46 O         -2.275383   -5.524312   -0.556378 O.2        1 UNL1     -0.2836
     47 C         1.515903   -5.542957   1.882475 C.3        1 UNL1     -0.0566
     48 O         0.881744   -2.898199   2.739898 O.3        1 UNL1     -0.3909
     49 C         -0.288762   -0.75021   0.690957 C.3        1 UNL1     -0.0577
     50 O         1.217267   -3.003942   -1.686498 O.3        1 UNL1     -0.3910
     51 O         0.103012   -2.141539   -4.164309 O.3        1 UNL1     -0.3753
     52 C         -2.364605   -1.349156   -1.446392 C.3        1 UNL1     -0.0564
     53 O         -0.561622   1.373652   -1.665361 O.3        1 UNL1     -0.4608
     54 C         0.329367   2.327209   -1.247274 C.2        1 UNL1     0.3042
     55 O         1.459697   2.146566   -0.796099 O.2        1 UNL1     -0.2512
     56 C         -0.162574   3.733983   -1.436206 C.3        1 UNL1     0.0332
     57 C         2.011313   -0.579319   -3.484426 C.3        1 UNL1     -0.0567
     58 C         -4.079957   -4.989291   -3.260884 C.3        1 UNL1     0.0210
     59 C         0.25748   -3.044995   -5.257823 C.3        1 UNL1     0.0372
     60 C         -1.651271   -3.36952   -3.254696 C.2        1 UNL1     -0.0208
     61 C         -1.036683   -4.548381   -3.361046 C.2        1 UNL1     0.0882
     62 H         -0.364868   -5.284267   0.892475 H        1 UNL1     0.0365
     63 H         -1.434022   -6.887181   1.569087 H        1 UNL1     0.0576
     64 H         -1.270848   -7.118368   4.637752 H        1 UNL1     0.0615
     65 H         -2.85588   -8.709233   2.466421 H        1 UNL1     0.0622
     66 H         -1.862583   -1.743255   -4.531705 H        1 UNL1     0.0645
     67 H         -2.176442   -0.193796   -3.117181 H        1 UNL1     0.0362
     68 H         -0.132125   0.552796   -3.398856 H        1 UNL1     0.0741
     69 H         1.841734   0.271664   -1.652078 H        1 UNL1     0.0359
     70 H         2.484047   -1.70872   -0.836587 H        1 UNL1     0.0600
     71 H         1.589717   -1.427497   1.119378 H        1 UNL1     0.0348
     72 H         0.795393   -3.695067   0.720355 H        1 UNL1     0.0602
     73 H         -2.658424   -3.324291   -2.921762 H        1 UNL1     0.0628
     74 H         0.0104   -4.675137   -3.638152 H        1 UNL1     0.1022
     75 H         -3.349007   -9.26613   6.484033 H        1 UNL1     0.0279
     76 H         -5.021099   -9.198205   6.093143 H        1 UNL1     0.0279
     77 H         -4.06318   -10.725563   5.93545 H        1 UNL1     0.0279
     78 H         -6.105234   -8.597773   4.187474 H        1 UNL1     0.1553
     79 H         -5.175822   -6.854065   4.335459 H        1 UNL1     0.1484
     80 H         -5.182455   -3.473141   2.600869 H        1 UNL1     0.0317
     81 H         -6.259081   -4.782341   2.135253 H        1 UNL1     0.0317
     82 H         -6.622751   -5.414758   4.535565 H        1 UNL1     0.0428
     83 H         -7.044926   -3.74948   4.20342 H        1 UNL1     0.0428
     84 H         -3.257958   -4.427574   6.020616 H        1 UNL1     0.0428
     85 H         -4.227833   -5.827042   5.720695 H        1 UNL1     0.0428
     86 H         -2.416527   -5.333243   4.077472 H        1 UNL1     0.0317
     87 H         -3.073096   -3.817981   3.658841 H        1 UNL1     0.0317
     88 H         -5.98171   -4.573914   7.088982 H        1 UNL1     0.0429
     89 H         -5.141954   -3.021477   7.120339 H        1 UNL1     0.0429
     90 H         -7.778547   -3.558259   5.622426 H        1 UNL1     0.0308
     91 H         -8.54306   -1.890503   7.639831 H        1 UNL1     0.0233
     92 H         -8.589521   -3.664212   7.805038 H        1 UNL1     0.0233
     93 H         -7.269874   -2.747744   8.500179 H        1 UNL1     0.0233
     94 H         -5.966613   -1.233345   5.828579 H        1 UNL1     0.0233
     95 H         -7.07113   -1.734813   4.539043 H        1 UNL1     0.0233
     96 H         -7.701083   -0.878696   5.965302 H        1 UNL1     0.0233
     97 H         -4.495022   -8.93198   -4.673785 H        1 UNL1     0.0280
     98 H         -5.010896   -10.477122   -4.05443 H        1 UNL1     0.0280
     99 H         -6.202922   -9.158338   -4.253462 H        1 UNL1     0.0280
     100 H         -6.031331   -11.213944   -1.753504 H        1 UNL1     0.2922
     101 H         2.097794   -4.822795   1.30765 H        1 UNL1     0.0236
     102 H         1.66334   -6.562976   1.529194 H        1 UNL1     0.0236
     103 H         1.965831   -5.526447   2.889195 H        1 UNL1     0.0236
     104 H         0.219249   -2.622278   3.403176 H        1 UNL1     0.2098
     105 H         -1.303861   -1.053766   0.447564 H        1 UNL1     0.0234
     106 H         -0.268301   -0.236173   1.651829 H        1 UNL1     0.0234
     107 H         0.0   0.0   0.0 H        1 UNL1     0.0234
     108 H         1.63508   -2.926859   -2.56585 H        1 UNL1     0.2098
     109 H         -3.246297   -0.706859   -1.31303 H        1 UNL1     0.0234
     110 H         -2.682968   -2.392477   -1.54574 H        1 UNL1     0.0234
     111 H         -1.830671   -1.323958   -0.487109 H        1 UNL1     0.0234
     112 H         0.587836   4.442616   -1.072792 H        1 UNL1     0.0342
     113 H         -0.425151   3.940289   -2.472707 H        1 UNL1     0.0342
     114 H         -1.07003   3.864356   -0.830655 H        1 UNL1     0.0342
     115 H         1.354668   -0.889112   -4.309067 H        1 UNL1     0.0234
     116 H         2.489711   0.35669   -3.779503 H        1 UNL1     0.0234
     117 H         2.775445   -1.375178   -3.50999 H        1 UNL1     0.0234
     118 H         -3.827969   -3.950402   -2.984809 H        1 UNL1     0.0309
     119 H         -4.336879   -5.024997   -4.32433 H        1 UNL1     0.0309
     120 H         -5.012509   -5.175987   -2.717195 H        1 UNL1     0.0309
     121 H         0.827427   -2.531552   -6.031705 H        1 UNL1     0.0524
     122 H         0.820695   -3.950272   -4.976222 H        1 UNL1     0.0524
     123 H         -0.714927   -3.33996   -5.641898 H        1 UNL1     0.0524
@<TRIPOS>BOND
     1     1     2    1
     2     1    42    1
     3     2     3    2
     4     3     4    1
     5     4     5    2
     6     5     7    1
     7     6    75    1
     8     6    76    1
     9     6    77    1
    10     7     9   am
    11     9    10    1
    12    10    11    2
    13    10    43    1
    14    11    14    1
    15    11    15    1
    16    12    13   ar
    17    12    27   ar
    18    12    43    1
    19    13    14    1
    20    13    30   ar
    21    14    17    2
    22    15    16    1
    23    16    17    1
    24    16    18    1
    25    16    22    1
    26    18    19    1
    27    19    20    1
    28    20    21    1
    29    21    22    1
    30    23    24    1
    31    23    88    1
    32    23    89    1
    33    24    25    1
    34    24    26    1
    35    24    90    1
    36    25    91    1
    37    25    92    1
    38    25    93    1
    39    26    94    1
    40    26    95    1
    41    26    96    1
    42    27    28   ar
    43    28    29   ar
    44    29    30   ar
    45    29    31    1
    46    30    33    1
    47    31    32    1
    48    32    33    1
    49    32    35    1
    50    34    97    1
    51    34    98    1
    52    34    99    1
    53    35    61    1
    54    36    37    1
    55    36    60    1
    56    37    38    1
    57    38    39    1
    58    39    40    1
    59    40    41    1
    60    41    42    1
    61    45   100    1
    62    47   101    1
    63    47   102    1
    64    47   103    1
    65    48   104    1
    66    49   105    1
    67    49   106    1
    68    49   107    1
    69    50   108    1
    70    51    59    1
    71    52   109    1
    72    52   110    1
    73    52   111    1
    74    53    54    1
    75    54    55    2
    76    54    56    1
    77    56   112    1
    78    56   113    1
    79    56   114    1
    80    57   115    1
    81    57   116    1
    82    57   117    1
    83    58   118    1
    84    58   119    1
    85    58   120    1
    86    59   121    1
    87    59   122    1
    88    59   123    1
    89    60    61    2
    90     1    47    1
    91     1    62    1
    92     2    63    1
    93     3    64    1
    94     4    65    1
    95     5     6    1
    96     7     8    2
    97     9    78    1
    98    15    79    1
    99    18    80    1
   100    18    81    1
   101    19    82    1
   102    19    83    1
   103    20    23    1
   104    21    84    1
   105    21    85    1
   106    22    86    1
   107    22    87    1
   108    27    45    1
   109    28    34    1
   110    32    58    1
   111    33    46    2
   112    36    51    1
   113    36    66    1
   114    37    52    1
   115    37    67    1
   116    38    53    1
   117    38    68    1
   118    42    48    1
   119    42    72    1
   120    43    44    2
   121    60    73    1
   122    61    74    1
   123    39    69    1
   124    39    57    1
   125    40    70    1
   126    40    50    1
   127    41    71    1
   128    41    49    1
