@<TRIPOS>MOLECULE
*****
 123 128 0 0 0
SMALL
GASTEIGER

@<TRIPOS>ATOM
     1 C         -0.750351   1.403718   -5.14165 C.3        1 UNL1     0.0009
     2 C         -2.038561   1.501078   -6.47134 C.2        1 UNL1     -0.0787
     3 C         -2.58229   1.035852   -7.729898 C.2        1 UNL1     -0.0649
     4 C         -4.033252   1.49691   -8.470499 C.2        1 UNL1     -0.0542
     5 C         -5.015785   1.135193   -9.424893 C.2        1 UNL1     0.0115
     6 C         -5.350863   0.136643   -10.566797 C.3        1 UNL1     -0.0348
     7 C         -6.45132   1.851718   -9.371777 C.2        1 UNL1     0.2441
     8 O         -6.776305   2.748234   -10.138047 O.2        1 UNL1     -0.2702
     9 N         -7.401941   1.206659   -8.561611 N.am        1 UNL1     -0.2772
     10 C         -7.311381   1.656123   -7.264266 C.2        1 UNL1     0.1049
     11 C         -6.383895   1.088223   -6.514945 C.2        1 UNL1     0.0801
     12 C         -7.196075   3.744403   -5.891997 C.ar        1 UNL1     0.0753
     13 C         -6.05661   3.164921   -5.248236 C.ar        1 UNL1     0.0305
     14 C         -5.694854   1.763513   -5.448839 C.2        1 UNL1     0.0924
     15 N         -5.642448   -0.009566   -6.742194 N.pl3        1 UNL1     -0.3170
     16 C         -4.906389   -0.299215   -5.54029 C.3        1 UNL1     0.1275
     17 N         -4.743381   1.040566   -4.86491 N.2        1 UNL1     -0.2557
     18 C         -5.821149   -1.120452   -4.636693 C.3        1 UNL1     0.0016
     19 C         -6.28351   -2.350443   -5.401502 C.3        1 UNL1     0.0026
     20 N         -5.113426   -3.120031   -5.801085 N.3        1 UNL1     -0.3018
     21 C         -4.142934   -2.394232   -6.623113 C.3        1 UNL1     0.0026
     22 C         -3.68848   -1.16533   -5.833705 C.3        1 UNL1     0.0016
     23 C         -5.44652   -4.450745   -6.268942 C.3        1 UNL1     0.0012
     24 C         -5.922082   -5.329001   -5.100925 C.3        1 UNL1     -0.0339
     25 C         -6.663103   -6.579232   -5.602788 C.3        1 UNL1     -0.0615
     26 C         -4.746077   -5.69527   -4.212309 C.3        1 UNL1     -0.0615
     27 C         -7.604858   5.044229   -5.603088 C.ar        1 UNL1     0.1347
     28 C         -6.979979   5.844253   -4.663121 C.ar        1 UNL1     0.0342
     29 C         -5.831385   5.27055   -4.077664 C.ar        1 UNL1     0.1435
     30 C         -5.388812   3.983068   -4.383831 C.ar        1 UNL1     0.0774
     31 O         -5.17724   5.880185   -3.065021 O.3        1 UNL1     -0.4436
     32 C         -4.414634   4.834297   -2.444195 C.3        1 UNL1     0.3143
     33 C         -4.248721   3.775581   -3.515552 C.2        1 UNL1     0.2504
     34 C         -7.507016   7.143633   -4.120953 C.3        1 UNL1     -0.0327
     35 O         -3.110127   5.361637   -2.173221 O.2        1 UNL1     -0.4528
     36 C         -1.866579   3.529038   0.909515 C.3        1 UNL1     0.0854
     37 C         -1.687709   1.979516   1.142986 C.3        1 UNL1     0.0236
     38 C         -0.218917   1.530675   1.604439 C.3        1 UNL1     0.1131
     39 C         1.044241   2.017956   0.786356 C.3        1 UNL1     0.0200
     40 C         1.029882   1.997736   -0.881524 C.3        1 UNL1     0.0661
     41 C         0.575595   0.685229   -1.855465 C.3        1 UNL1     0.0091
     42 C         -0.229894   0.648741   -3.503269 C.3        1 UNL1     0.0661
     43 C         -7.981509   2.884244   -6.811496 C.2        1 UNL1     0.2131
     44 O         -9.143284   3.099007   -7.106273 O.2        1 UNL1     -0.2851
     45 O         -8.696252   5.548767   -6.307174 O.3        1 UNL1     -0.5056
     46 O         -3.362958   2.959238   -3.637458 O.2        1 UNL1     -0.2836
     47 C         0.576836   2.045147   -5.628604 C.3        1 UNL1     -0.0566
     48 O         0.718553   -0.339602   -4.071374 O.3        1 UNL1     -0.3909
     49 C         -0.131745   -0.338566   -0.995809 C.3        1 UNL1     -0.0577
     50 O         0.475434   3.193251   -1.392458 O.3        1 UNL1     -0.3910
     51 O         -0.68763   4.300194   0.962708 O.3        1 UNL1     -0.3753
     52 C         -2.535786   1.137481   0.134676 C.3        1 UNL1     -0.0564
     53 O         -0.161998   0.134754   2.152608 O.3        1 UNL1     -0.4608
     54 C         0.86323   -0.75392   1.960002 C.2        1 UNL1     0.3042
     55 O         0.88717   -1.710324   1.186338 O.2        1 UNL1     -0.2512
     56 C         2.089039   -0.44285   2.770768 C.3        1 UNL1     0.0332
     57 C         1.613146   3.325408   1.510987 C.3        1 UNL1     -0.0567
     58 C         -5.297797   4.262826   -1.310628 C.3        1 UNL1     0.0210
     59 C         -0.559475   5.119957   2.123497 C.3        1 UNL1     0.0372
     60 C         -2.564568   3.898452   -0.352034 C.2        1 UNL1     -0.0208
     61 C         -2.274811   4.832742   -1.258614 C.2        1 UNL1     0.0882
     62 H         -1.289752   2.182186   -4.588707 H        1 UNL1     0.0365
     63 H         -2.627827   2.351504   -6.122041 H        1 UNL1     0.0576
     64 H         -2.153083   0.181431   -8.257965 H        1 UNL1     0.0615
     65 H         -4.33186   2.39461   -7.922366 H        1 UNL1     0.0622
     66 H         -2.525702   3.856872   1.725681 H        1 UNL1     0.0645
     67 H         -2.275924   1.776109   2.054682 H        1 UNL1     0.0362
     68 H         -0.161183   2.055382   2.570292 H        1 UNL1     0.0741
     69 H         1.881777   1.375747   1.024071 H        1 UNL1     0.0359
     70 H         2.114544   2.0878   -1.082659 H        1 UNL1     0.0600
     71 H         1.56171   0.202209   -2.001155 H        1 UNL1     0.0348
     72 H         0.194147   1.657623   -3.395281 H        1 UNL1     0.0602
     73 H         -3.481666   3.366901   -0.412312 H        1 UNL1     0.0628
     74 H         -1.332442   5.379923   -1.300683 H        1 UNL1     0.1022
     75 H         -4.488414   0.0412   -11.269724 H        1 UNL1     0.0279
     76 H         -5.528381   -0.895271   -10.272331 H        1 UNL1     0.0279
     77 H         -6.13831   0.507919   -11.238944 H        1 UNL1     0.0279
     78 H         -7.220186   0.205183   -8.552235 H        1 UNL1     0.1553
     79 H         -5.881484   -0.713388   -7.416308 H        1 UNL1     0.1484
     80 H         -5.272233   -1.396562   -3.728276 H        1 UNL1     0.0317
     81 H         -6.684973   -0.529652   -4.31356 H        1 UNL1     0.0317
     82 H         -6.896706   -2.08071   -6.27394 H        1 UNL1     0.0428
     83 H         -6.935858   -2.92074   -4.739496 H        1 UNL1     0.0428
     84 H         -3.237407   -2.968455   -6.842427 H        1 UNL1     0.0428
     85 H         -4.549337   -2.148199   -7.613882 H        1 UNL1     0.0428
     86 H         -2.88668   -0.7348   -6.404449 H        1 UNL1     0.0317
     87 H         -3.198552   -1.477696   -4.903385 H        1 UNL1     0.0317
     88 H         -6.26478   -4.362447   -6.995543 H        1 UNL1     0.0429
     89 H         -4.59981   -4.912861   -6.792683 H        1 UNL1     0.0429
     90 H         -6.605011   -4.748193   -4.469669 H        1 UNL1     0.0308
     91 H         -6.113005   -7.069831   -6.411371 H        1 UNL1     0.0233
     92 H         -6.814488   -7.291512   -4.788326 H        1 UNL1     0.0233
     93 H         -7.660762   -6.34474   -5.993335 H        1 UNL1     0.0233
     94 H         -4.975988   -6.5967   -3.634035 H        1 UNL1     0.0233
     95 H         -3.865015   -5.903813   -4.825661 H        1 UNL1     0.0233
     96 H         -4.507068   -4.888323   -3.513968 H        1 UNL1     0.0233
     97 H         -7.630802   7.114852   -3.042492 H        1 UNL1     0.0280
     98 H         -6.828002   7.982248   -4.323243 H        1 UNL1     0.0280
     99 H         -8.487023   7.362792   -4.575541 H        1 UNL1     0.0280
     100 H         -8.648193   5.432487   -7.239801 H        1 UNL1     0.2922
     101 H         0.703485   3.02388   -5.166328 H        1 UNL1     0.0236
     102 H         0.657281   2.092047   -6.714105 H        1 UNL1     0.0236
     103 H         1.458925   1.467094   -5.306164 H        1 UNL1     0.0236
     104 H         1.607386   -0.128715   -3.724281 H        1 UNL1     0.2098
     105 H         -1.199878   -0.419636   -1.181096 H        1 UNL1     0.0234
     106 H         0.32745   -1.327031   -0.994016 H        1 UNL1     0.0234
     107 H         0.0   0.0   0.0 H        1 UNL1     0.0234
     108 H         0.279731   3.041709   -2.337182 H        1 UNL1     0.2098
     109 H         -3.612215   1.338746   0.2269 H        1 UNL1     0.0234
     110 H         -2.225575   1.273191   -0.907003 H        1 UNL1     0.0234
     111 H         -2.418944   0.059555   0.308949 H        1 UNL1     0.0234
     112 H         2.873331   -1.174865   2.555395 H        1 UNL1     0.0342
     113 H         2.445045   0.572319   2.601845 H        1 UNL1     0.0342
     114 H         1.828484   -0.531547   3.834445 H        1 UNL1     0.0342
     115 H         2.706275   3.396435   1.426059 H        1 UNL1     0.0234
     116 H         1.193101   4.260093   1.134192 H        1 UNL1     0.0234
     117 H         1.484997   3.311855   2.607042 H        1 UNL1     0.0234
     118 H         -4.903089   4.514409   -0.310669 H        1 UNL1     0.0309
     119 H         -6.341773   4.585546   -1.375182 H        1 UNL1     0.0309
     120 H         -5.318741   3.167544   -1.305655 H        1 UNL1     0.0309
     121 H         0.082477   5.961255   1.863745 H        1 UNL1     0.0524
     122 H         -1.527773   5.531005   2.454369 H        1 UNL1     0.0524
     123 H         -0.120783   4.551386   2.938587 H        1 UNL1     0.0524
@<TRIPOS>BOND
     1     1     2    1
     2     1    42    1
     3     2     3    2
     4     3     4    1
     5     4     5    2
     6     5     7    1
     7     6    75    1
     8     6    76    1
     9     6    77    1
    10     7     9   am
    11     9    10    1
    12    10    11    2
    13    10    43    1
    14    11    14    1
    15    11    15    1
    16    12    13   ar
    17    12    27   ar
    18    12    43    1
    19    13    14    1
    20    13    30   ar
    21    14    17    2
    22    15    16    1
    23    16    17    1
    24    16    18    1
    25    16    22    1
    26    18    19    1
    27    19    20    1
    28    20    21    1
    29    21    22    1
    30    23    24    1
    31    23    88    1
    32    23    89    1
    33    24    25    1
    34    24    26    1
    35    24    90    1
    36    25    91    1
    37    25    92    1
    38    25    93    1
    39    26    94    1
    40    26    95    1
    41    26    96    1
    42    27    28   ar
    43    28    29   ar
    44    29    30   ar
    45    29    31    1
    46    30    33    1
    47    31    32    1
    48    32    33    1
    49    32    35    1
    50    34    97    1
    51    34    98    1
    52    34    99    1
    53    35    61    1
    54    36    37    1
    55    36    60    1
    56    37    38    1
    57    38    39    1
    58    39    40    1
    59    40    41    1
    60    41    42    1
    61    45   100    1
    62    47   101    1
    63    47   102    1
    64    47   103    1
    65    48   104    1
    66    49   105    1
    67    49   106    1
    68    49   107    1
    69    50   108    1
    70    51    59    1
    71    52   109    1
    72    52   110    1
    73    52   111    1
    74    53    54    1
    75    54    55    2
    76    54    56    1
    77    56   112    1
    78    56   113    1
    79    56   114    1
    80    57   115    1
    81    57   116    1
    82    57   117    1
    83    58   118    1
    84    58   119    1
    85    58   120    1
    86    59   121    1
    87    59   122    1
    88    59   123    1
    89    60    61    2
    90     1    47    1
    91     1    62    1
    92     2    63    1
    93     3    64    1
    94     4    65    1
    95     5     6    1
    96     7     8    2
    97     9    78    1
    98    15    79    1
    99    18    80    1
   100    18    81    1
   101    19    82    1
   102    19    83    1
   103    20    23    1
   104    21    84    1
   105    21    85    1
   106    22    86    1
   107    22    87    1
   108    27    45    1
   109    28    34    1
   110    32    58    1
   111    33    46    2
   112    36    51    1
   113    36    66    1
   114    37    52    1
   115    37    67    1
   116    38    53    1
   117    38    68    1
   118    42    48    1
   119    42    72    1
   120    43    44    2
   121    60    73    1
   122    61    74    1
   123    39    69    1
   124    39    57    1
   125    40    70    1
   126    40    50    1
   127    41    71    1
   128    41    49    1
