@<TRIPOS>MOLECULE
*****
 123 128 0 0 0
SMALL
GASTEIGER

@<TRIPOS>ATOM
     1 C         5.198305   1.596468   0.654329 C.3        1 UNL1     0.0009
     2 C         6.687521   2.349681   -0.153101 C.2        1 UNL1     -0.0787
     3 C         7.98799   2.205695   -0.772853 C.2        1 UNL1     -0.0649
     4 C         8.928448   3.405653   -1.509059 C.2        1 UNL1     -0.0542
     5 C         9.988744   3.657374   -2.414314 C.2        1 UNL1     0.0115
     6 C         11.126425   2.988964   -3.234211 C.3        1 UNL1     -0.0348
     7 C         10.150391   5.130614   -3.031098 C.2        1 UNL1     0.2441
     8 O         10.985562   5.93082   -2.632745 O.2        1 UNL1     -0.2702
     9 N         9.447706   5.347941   -4.229077 N.am        1 UNL1     -0.2772
     10 C         8.167391   5.776606   -3.963819 C.2        1 UNL1     0.1049
     11 C         7.282646   4.8344   -3.69235 C.2        1 UNL1     0.0801
     12 C         6.870979   7.436597   -2.614345 C.ar        1 UNL1     0.0753
     13 C         6.062704   6.336972   -2.182926 C.ar        1 UNL1     0.0305
     14 C         6.161737   5.021627   -2.811506 C.2        1 UNL1     0.0924
     15 N         7.36987   3.500719   -3.834531 N.pl3        1 UNL1     -0.3170
     16 C         6.072151   2.943656   -3.559105 C.3        1 UNL1     0.1275
     17 N         5.431913   3.927975   -2.610982 N.2        1 UNL1     -0.2557
     18 C         5.265621   3.015298   -4.852194 C.3        1 UNL1     0.0016
     19 C         6.037658   2.29683   -5.947343 C.3        1 UNL1     0.0026
     20 N         6.251939   0.915295   -5.539333 N.3        1 UNL1     -0.3018
     21 C         6.966805   0.74484   -4.272731 C.3        1 UNL1     0.0026
     22 C         6.171389   1.470376   -3.186082 C.3        1 UNL1     0.0016
     23 C         6.709125   0.07106   -6.6251 C.3        1 UNL1     0.0012
     24 C         5.581144   -0.153557   -7.644395 C.3        1 UNL1     -0.0339
     25 C         5.677626   0.836109   -8.817131 C.3        1 UNL1     -0.0615
     26 C         5.593641   -1.593932   -8.126 C.3        1 UNL1     -0.0615
     27 C         6.686795   8.715505   -2.094164 C.ar        1 UNL1     0.1347
     28 C         5.703905   9.024066   -1.17071 C.ar        1 UNL1     0.0342
     29 C         4.952417   7.916303   -0.724291 C.ar        1 UNL1     0.1435
     30 C         5.149749   6.622979   -1.20967 C.ar        1 UNL1     0.0774
     31 O         3.886573   8.07033   0.091343 O.3        1 UNL1     -0.4436
     32 C         3.132763   6.858535   -0.064207 C.3        1 UNL1     0.3143
     33 C         4.132883   5.829632   -0.551374 C.2        1 UNL1     0.2504
     34 C         5.284233   10.40764   -0.758764 C.3        1 UNL1     -0.0327
     35 O         2.713713   6.446808   1.242747 O.2        1 UNL1     -0.4528
     36 C         -0.571444   4.609784   0.751652 C.3        1 UNL1     0.0854
     37 C         -0.884128   3.349687   -0.143841 C.3        1 UNL1     0.0236
     38 C         -1.549895   2.115773   0.63459 C.3        1 UNL1     0.1131
     39 C         -0.886082   1.576768   1.965416 C.3        1 UNL1     0.0200
     40 C         0.767456   1.381361   2.065737 C.3        1 UNL1     0.0661
     41 C         1.742542   0.571567   0.938327 C.3        1 UNL1     0.0091
     42 C         3.478882   0.87624   0.430686 C.3        1 UNL1     0.0661
     43 C         7.852305   7.188426   -3.699551 C.2        1 UNL1     0.2131
     44 O         8.304087   8.066373   -4.412181 O.2        1 UNL1     -0.2851
     45 O         7.545754   9.720636   -2.533866 O.3        1 UNL1     -0.5056
     46 O         4.107436   4.627606   -0.408759 O.2        1 UNL1     -0.2836
     47 C         5.531468   1.170298   2.109445 C.3        1 UNL1     -0.0566
     48 O         3.880872   -0.546881   0.541355 O.3        1 UNL1     -0.3909
     49 C         0.944878   0.351368   -0.327666 C.3        1 UNL1     -0.0577
     50 O         1.390816   2.584523   2.467667 O.3        1 UNL1     -0.3910
     51 O         -0.749208   4.438585   2.139644 O.3        1 UNL1     -0.3753
     52 C         0.194044   3.145522   -1.257758 C.3        1 UNL1     -0.0564
     53 O         -2.152684   1.086144   -0.275815 O.3        1 UNL1     -0.4608
     54 C         -2.426493   -0.212908   0.063921 C.2        1 UNL1     0.3042
     55 O         -1.869822   -1.227427   -0.354059 O.2        1 UNL1     -0.2512
     56 C         -3.497651   -0.348382   1.108422 C.3        1 UNL1     0.0332
     57 C         -1.629324   2.280531   3.194433 C.3        1 UNL1     -0.0567
     58 C         2.103622   7.124712   -1.187394 C.3        1 UNL1     0.0210
     59 C         -1.082396   5.628791   2.852567 C.3        1 UNL1     0.0372
     60 C         0.783382   5.195822   0.56148 C.2        1 UNL1     -0.0208
     61 C         1.678709   5.612282   1.457971 C.2        1 UNL1     0.0882
     62 H         4.750066   2.595482   0.715681 H        1 UNL1     0.0365
     63 H         6.450245   3.412118   -0.067088 H        1 UNL1     0.0576
     64 H         8.423127   1.223143   -0.968697 H        1 UNL1     0.0615
     65 H         8.457999   4.338992   -1.188064 H        1 UNL1     0.0622
     66 H         -1.281707   5.375248   0.408668 H        1 UNL1     0.0645
     67 H         -1.718185   3.678716   -0.787773 H        1 UNL1     0.0362
     68 H         -2.494686   2.58484   0.949021 H        1 UNL1     0.0741
     69 H         -1.255001   0.578298   2.158714 H        1 UNL1     0.0359
     70 H         0.828472   0.727243   2.956504 H        1 UNL1     0.0600
     71 H         1.740035   -0.445906   1.376161 H        1 UNL1     0.0348
     72 H         3.354303   1.377702   1.401424 H        1 UNL1     0.0602
     73 H         0.942947   5.378499   -0.472162 H        1 UNL1     0.0628
     74 H         1.617829   5.413504   2.528493 H        1 UNL1     0.1022
     75 H         11.131682   1.884514   -3.069296 H        1 UNL1     0.0279
     76 H         11.052645   3.063819   -4.316811 H        1 UNL1     0.0279
     77 H         12.128512   3.266466   -2.87572 H        1 UNL1     0.0279
     78 H         9.377186   4.474803   -4.747474 H        1 UNL1     0.1553
     79 H         8.042594   3.046284   -4.424331 H        1 UNL1     0.1484
     80 H         4.283612   2.55581   -4.686983 H        1 UNL1     0.0317
     81 H         5.080398   4.05554   -5.140707 H        1 UNL1     0.0317
     82 H         6.992176   2.797028   -6.167818 H        1 UNL1     0.0428
     83 H         5.445612   2.361528   -6.860769 H        1 UNL1     0.0428
     84 H         7.044347   -0.297973   -3.949714 H        1 UNL1     0.0428
     85 H         8.010668   1.080353   -4.344129 H        1 UNL1     0.0428
     86 H         6.648271   1.214029   -2.258258 H        1 UNL1     0.0317
     87 H         5.174025   1.024003   -3.090628 H        1 UNL1     0.0317
     88 H         7.53914   0.582892   -7.129479 H        1 UNL1     0.0429
     89 H         7.100151   -0.883654   -6.250408 H        1 UNL1     0.0429
     90 H         4.614231   -0.012415   -7.14703 H        1 UNL1     0.0308
     91 H         6.64406   0.758903   -9.324228 H        1 UNL1     0.0233
     92 H         4.878074   0.657662   -9.539961 H        1 UNL1     0.0233
     93 H         5.570439   1.87859   -8.493744 H        1 UNL1     0.0233
     94 H         4.922942   -1.711116   -8.98406 H        1 UNL1     0.0233
     95 H         6.601765   -1.872294   -8.445631 H        1 UNL1     0.0233
     96 H         5.270709   -2.280771   -7.338641 H        1 UNL1     0.0233
     97 H         4.464702   10.389725   -0.046529 H        1 UNL1     0.0280
     98 H         6.097438   10.957673   -0.267422 H        1 UNL1     0.0280
     99 H         4.958263   10.974064   -1.646458 H        1 UNL1     0.0280
     100 H         7.113375   10.481361   -2.880231 H        1 UNL1     0.2922
     101 H         4.638857   0.768359   2.588346 H        1 UNL1     0.0236
     102 H         5.986506   1.967648   2.696093 H        1 UNL1     0.0236
     103 H         6.262332   0.345098   2.142247 H        1 UNL1     0.0236
     104 H         4.265974   -0.676337   1.430122 H        1 UNL1     0.2098
     105 H         0.779712   1.25017   -0.916467 H        1 UNL1     0.0234
     106 H         1.312384   -0.45429   -0.963105 H        1 UNL1     0.0234
     107 H         0.0   -0.0   0.0 H        1 UNL1     0.0234
     108 H         1.236581   3.24116   1.761403 H        1 UNL1     0.2098
     109 H         1.201198   3.005029   -0.841088 H        1 UNL1     0.0234
     110 H         -0.040091   2.318749   -1.937 H        1 UNL1     0.0234
     111 H         0.264796   4.020371   -1.917744 H        1 UNL1     0.0234
     112 H         -3.663172   -1.40564   1.336797 H        1 UNL1     0.0342
     113 H         -3.263199   0.214213   2.010842 H        1 UNL1     0.0342
     114 H         -4.431864   0.057441   0.696455 H        1 UNL1     0.0342
     115 H         -2.702375   2.045056   3.211839 H        1 UNL1     0.0234
     116 H         -1.21933   2.016523   4.171292 H        1 UNL1     0.0234
     117 H         -1.653905   3.381457   3.121652 H        1 UNL1     0.0234
     118 H         1.204224   7.643027   -0.811309 H        1 UNL1     0.0309
     119 H         2.519806   7.692289   -2.025755 H        1 UNL1     0.0309
     120 H         1.701535   6.200544   -1.616749 H        1 UNL1     0.0309
     121 H         -0.252175   6.32516   2.737847 H        1 UNL1     0.0524
     122 H         -1.984666   6.118755   2.450221 H        1 UNL1     0.0524
     123 H         -1.24159   5.405213   3.903644 H        1 UNL1     0.0524
@<TRIPOS>BOND
     1     1     2    1
     2     1    42    1
     3     2     3    2
     4     3     4    1
     5     4     5    2
     6     5     7    1
     7     6    75    1
     8     6    76    1
     9     6    77    1
    10     7     9   am
    11     9    10    1
    12    10    11    2
    13    10    43    1
    14    11    14    1
    15    11    15    1
    16    12    13   ar
    17    12    27   ar
    18    12    43    1
    19    13    14    1
    20    13    30   ar
    21    14    17    2
    22    15    16    1
    23    16    17    1
    24    16    18    1
    25    16    22    1
    26    18    19    1
    27    19    20    1
    28    20    21    1
    29    21    22    1
    30    23    24    1
    31    23    88    1
    32    23    89    1
    33    24    25    1
    34    24    26    1
    35    24    90    1
    36    25    91    1
    37    25    92    1
    38    25    93    1
    39    26    94    1
    40    26    95    1
    41    26    96    1
    42    27    28   ar
    43    28    29   ar
    44    29    30   ar
    45    29    31    1
    46    30    33    1
    47    31    32    1
    48    32    33    1
    49    32    35    1
    50    34    97    1
    51    34    98    1
    52    34    99    1
    53    35    61    1
    54    36    37    1
    55    36    60    1
    56    37    38    1
    57    38    39    1
    58    39    40    1
    59    40    41    1
    60    41    42    1
    61    45   100    1
    62    47   101    1
    63    47   102    1
    64    47   103    1
    65    48   104    1
    66    49   105    1
    67    49   106    1
    68    49   107    1
    69    50   108    1
    70    51    59    1
    71    52   109    1
    72    52   110    1
    73    52   111    1
    74    53    54    1
    75    54    55    2
    76    54    56    1
    77    56   112    1
    78    56   113    1
    79    56   114    1
    80    57   115    1
    81    57   116    1
    82    57   117    1
    83    58   118    1
    84    58   119    1
    85    58   120    1
    86    59   121    1
    87    59   122    1
    88    59   123    1
    89    60    61    2
    90     1    47    1
    91     1    62    1
    92     2    63    1
    93     3    64    1
    94     4    65    1
    95     5     6    1
    96     7     8    2
    97     9    78    1
    98    15    79    1
    99    18    80    1
   100    18    81    1
   101    19    82    1
   102    19    83    1
   103    20    23    1
   104    21    84    1
   105    21    85    1
   106    22    86    1
   107    22    87    1
   108    27    45    1
   109    28    34    1
   110    32    58    1
   111    33    46    2
   112    36    51    1
   113    36    66    1
   114    37    52    1
   115    37    67    1
   116    38    53    1
   117    38    68    1
   118    42    48    1
   119    42    72    1
   120    43    44    2
   121    60    73    1
   122    61    74    1
   123    39    69    1
   124    39    57    1
   125    40    70    1
   126    40    50    1
   127    41    71    1
   128    41    49    1
