@<TRIPOS>MOLECULE
*****
 123 128 0 0 0
SMALL
GASTEIGER

@<TRIPOS>ATOM
     1 C         -0.396527   3.409835   -3.605714 C.3        1 UNL1     0.0009
     2 C         0.036766   3.495065   -5.406277 C.2        1 UNL1     -0.0787
     3 C         0.806131   4.07492   -6.486968 C.2        1 UNL1     -0.0649
     4 C         0.846866   3.594359   -8.109855 C.2        1 UNL1     -0.0542
     5 C         1.585003   3.646416   -9.317962 C.2        1 UNL1     0.0115
     6 C         2.793145   4.320778   -10.024325 C.3        1 UNL1     -0.0348
     7 C         1.260722   2.579835   -10.473053 C.2        1 UNL1     0.2441
     8 O         0.600598   2.854135   -11.465787 O.2        1 UNL1     -0.2702
     9 N         2.00119   1.387247   -10.398262 N.am        1 UNL1     -0.2772
     10 C         1.357341   0.471641   -9.597982 C.2        1 UNL1     0.1049
     11 C         1.551585   0.596887   -8.297673 C.2        1 UNL1     0.0801
     12 C         -0.869409   -0.596847   -9.201432 C.ar        1 UNL1     0.0753
     13 C         -0.702881   -0.249491   -7.822947 C.ar        1 UNL1     0.0305
     14 C         0.572673   0.241517   -7.3063 C.2        1 UNL1     0.0924
     15 N         2.443691   1.344544   -7.625598 N.pl3        1 UNL1     -0.3170
     16 C         2.35448   0.989982   -6.233987 C.3        1 UNL1     0.1275
     17 N         0.933264   0.514552   -6.055559 N.2        1 UNL1     -0.2557
     18 C         3.240275   -0.233917   -6.021525 C.3        1 UNL1     0.0016
     19 C         4.646541   0.095145   -6.49663 C.3        1 UNL1     0.0026
     20 N         5.140645   1.237251   -5.740004 N.3        1 UNL1     -0.3018
     21 C         4.319704   2.446345   -5.832288 C.3        1 UNL1     0.0026
     22 C         2.912879   2.094044   -5.345851 C.3        1 UNL1     0.0016
     23 C         6.566208   1.44495   -5.898984 C.3        1 UNL1     0.0012
     24 C         7.236046   0.17919   -6.456591 C.3        1 UNL1     -0.0339
     25 C         6.274293   -0.617422   -7.353528 C.3        1 UNL1     -0.0615
     26 C         8.51229   0.546847   -7.193348 C.3        1 UNL1     -0.0615
     27 C         -2.048888   -1.177114   -9.662124 C.ar        1 UNL1     0.1347
     28 C         -3.111908   -1.492988   -8.834923 C.ar        1 UNL1     0.0342
     29 C         -2.944646   -1.097321   -7.490812 C.ar        1 UNL1     0.1435
     30 C         -1.783076   -0.482332   -7.022024 C.ar        1 UNL1     0.0774
     31 O         -3.844011   -1.43287   -6.540256 O.3        1 UNL1     -0.4436
     32 C         -3.131946   -1.292657   -5.301637 C.3        1 UNL1     0.3143
     33 C         -2.005167   -0.324343   -5.599884 C.2        1 UNL1     0.2504
     34 C         -4.297984   -2.338362   -9.207304 C.3        1 UNL1     -0.0327
     35 O         -4.010081   -0.63892   -4.377106 O.2        1 UNL1     -0.4528
     36 C         -3.032762   -1.910558   -0.936776 C.3        1 UNL1     0.0854
     37 C         -1.63283   -1.850101   -0.212858 C.3        1 UNL1     0.0236
     38 C         -1.648651   -1.154773   1.232137 C.3        1 UNL1     0.1131
     39 C         -2.317354   0.267491   1.411776 C.3        1 UNL1     0.0200
     40 C         -2.048455   1.474937   0.292756 C.3        1 UNL1     0.0661
     41 C         -0.534602   1.967741   -0.292909 C.3        1 UNL1     0.0091
     42 C         -0.050302   2.622973   -1.936541 C.3        1 UNL1     0.0661
     43 C         0.2892   -0.400999   -10.107814 C.2        1 UNL1     0.2131
     44 O         0.425346   -0.99232   -11.163532 O.2        1 UNL1     -0.2851
     45 O         -2.147253   -1.442497   -11.026431 O.3        1 UNL1     -0.5056
     46 O         -1.434448   0.425026   -4.83924 O.2        1 UNL1     -0.2836
     47 C         -1.277718   4.623495   -3.205074 C.3        1 UNL1     -0.0566
     48 O         0.734438   3.752366   -1.381769 O.3        1 UNL1     -0.3909
     49 C         0.497995   0.931345   0.090655 C.3        1 UNL1     -0.0577
     50 O         -2.973022   1.385853   -0.77259 O.3        1 UNL1     -0.3910
     51 O         -4.07951   -1.200695   -0.314005 O.3        1 UNL1     -0.3753
     52 C         -0.462381   -1.633444   -1.22679 C.3        1 UNL1     -0.0564
     53 O         -0.410581   -1.417547   2.038648 O.3        1 UNL1     -0.4608
     54 C         0.215496   -0.510246   2.85275 C.2        1 UNL1     0.3042
     55 O         0.065657   -0.367008   4.065544 O.2        1 UNL1     -0.2512
     56 C         1.227213   0.340431   2.138963 C.3        1 UNL1     0.0332
     57 C         -3.819006   0.034827   1.910857 C.3        1 UNL1     -0.0567
     58 C         -2.526749   -2.680221   -4.985517 C.3        1 UNL1     0.0210
     59 C         -4.595409   -0.106845   -1.071108 C.3        1 UNL1     0.0372
     60 C         -3.020714   -1.492197   -2.365058 C.2        1 UNL1     -0.0208
     61 C         -3.853836   -0.699662   -3.040736 C.2        1 UNL1     0.0882
     62 H         -1.08341   2.584777   -3.829727 H        1 UNL1     0.0365
     63 H         -0.67605   2.779444   -5.821307 H        1 UNL1     0.0576
     64 H         1.590153   4.812142   -6.300097 H        1 UNL1     0.0615
     65 H         -0.014939   2.928401   -8.206156 H        1 UNL1     0.0622
     66 H         -3.297285   -2.977364   -0.937498 H        1 UNL1     0.0645
     67 H         -1.422137   -2.900941   0.051536 H        1 UNL1     0.0362
     68 H         -2.307088   -1.856376   1.76668 H        1 UNL1     0.0741
     69 H         -1.953636   0.709642   2.32972 H        1 UNL1     0.0359
     70 H         -2.382908   2.353832   0.87649 H        1 UNL1     0.0600
     71 H         -0.304516   2.779368   0.42492 H        1 UNL1     0.0348
     72 H         -1.138687   2.762139   -1.86329 H        1 UNL1     0.0602
     73 H         -2.268939   -2.035419   -2.881771 H        1 UNL1     0.0628
     74 H         -4.611932   -0.065723   -2.579596 H        1 UNL1     0.1022
     75 H         2.478826   4.766029   -10.998999 H        1 UNL1     0.0279
     76 H         3.242197   5.169347   -9.513099 H        1 UNL1     0.0279
     77 H         3.552891   3.596121   -10.351983 H        1 UNL1     0.0279
     78 H         2.90989   1.574528   -9.979613 H        1 UNL1     0.1553
     79 H         3.276698   1.722608   -8.038029 H        1 UNL1     0.1484
     80 H         3.229379   -0.502928   -4.958379 H        1 UNL1     0.0317
     81 H         2.849718   -1.099188   -6.567806 H        1 UNL1     0.0317
     82 H         4.674705   0.294606   -7.577988 H        1 UNL1     0.0428
     83 H         5.260967   -0.791583   -6.337749 H        1 UNL1     0.0428
     84 H         4.668429   3.263171   -5.192758 H        1 UNL1     0.0428
     85 H         4.334939   2.874545   -6.844084 H        1 UNL1     0.0428
     86 H         2.380199   3.025834   -5.301049 H        1 UNL1     0.0317
     87 H         2.94851   1.771445   -4.298112 H        1 UNL1     0.0317
     88 H         6.714282   2.263347   -6.615639 H        1 UNL1     0.0429
     89 H         7.031585   1.75608   -4.954846 H        1 UNL1     0.0429
     90 H         7.545819   -0.460705   -5.621853 H        1 UNL1     0.0308
     91 H         5.774492   -1.412983   -6.792828 H        1 UNL1     0.0233
     92 H         5.520291   0.040669   -7.791713 H        1 UNL1     0.0233
     93 H         6.788599   -1.096418   -8.195482 H        1 UNL1     0.0233
     94 H         8.97566   -0.350651   -7.617166 H        1 UNL1     0.0233
     95 H         8.284897   1.229704   -8.016732 H        1 UNL1     0.0233
     96 H         9.234163   1.026285   -6.52626 H        1 UNL1     0.0233
     97 H         -4.713373   -2.056049   -10.170103 H        1 UNL1     0.0280
     98 H         -4.038029   -3.401594   -9.292261 H        1 UNL1     0.0280
     99 H         -5.085739   -2.225397   -8.444561 H        1 UNL1     0.0280
     100 H         -1.836475   -2.292828   -11.283291 H        1 UNL1     0.2922
     101 H         -0.977782   5.500679   -3.777998 H        1 UNL1     0.0236
     102 H         -1.279678   4.816394   -2.132801 H        1 UNL1     0.0236
     103 H         -2.338316   4.46887   -3.46472 H        1 UNL1     0.0236
     104 H         0.359443   4.578537   -1.7448 H        1 UNL1     0.2098
     105 H         1.371024   0.906215   -0.556646 H        1 UNL1     0.0234
     106 H         0.803768   0.958506   1.136453 H        1 UNL1     0.0234
     107 H         0.0   0.0   0.0 H        1 UNL1     0.0234
     108 H         -3.020875   0.447059   -1.037436 H        1 UNL1     0.2098
     109 H         0.028774   -0.659468   -1.093193 H        1 UNL1     0.0234
     110 H         0.288611   -2.430106   -1.193834 H        1 UNL1     0.0234
     111 H         -0.818961   -1.646547   -2.265359 H        1 UNL1     0.0234
     112 H         2.140846   0.412671   2.736794 H        1 UNL1     0.0342
     113 H         1.44317   -0.032367   1.138849 H        1 UNL1     0.0342
     114 H         0.812156   1.352358   2.034578 H        1 UNL1     0.0342
     115 H         -4.208462   0.906694   2.454327 H        1 UNL1     0.0234
     116 H         -4.523238   -0.193286   1.108316 H        1 UNL1     0.0234
     117 H         -3.910439   -0.752945   2.678318 H        1 UNL1     0.0234
     118 H         -2.936922   -3.470054   -5.638915 H        1 UNL1     0.0309
     119 H         -1.433961   -2.69638   -5.046801 H        1 UNL1     0.0309
     120 H         -2.779166   -3.029331   -3.978286 H        1 UNL1     0.0309
     121 H         -4.178569   0.809084   -0.653167 H        1 UNL1     0.0524
     122 H         -4.296376   -0.154017   -2.131482 H        1 UNL1     0.0524
     123 H         -5.679886   -0.086576   -1.011172 H        1 UNL1     0.0524
@<TRIPOS>BOND
     1     1     2    1
     2     1    42    1
     3     2     3    2
     4     3     4    1
     5     4     5    2
     6     5     7    1
     7     6    75    1
     8     6    76    1
     9     6    77    1
    10     7     9   am
    11     9    10    1
    12    10    11    2
    13    10    43    1
    14    11    14    1
    15    11    15    1
    16    12    13   ar
    17    12    27   ar
    18    12    43    1
    19    13    14    1
    20    13    30   ar
    21    14    17    2
    22    15    16    1
    23    16    17    1
    24    16    18    1
    25    16    22    1
    26    18    19    1
    27    19    20    1
    28    20    21    1
    29    21    22    1
    30    23    24    1
    31    23    88    1
    32    23    89    1
    33    24    25    1
    34    24    26    1
    35    24    90    1
    36    25    91    1
    37    25    92    1
    38    25    93    1
    39    26    94    1
    40    26    95    1
    41    26    96    1
    42    27    28   ar
    43    28    29   ar
    44    29    30   ar
    45    29    31    1
    46    30    33    1
    47    31    32    1
    48    32    33    1
    49    32    35    1
    50    34    97    1
    51    34    98    1
    52    34    99    1
    53    35    61    1
    54    36    37    1
    55    36    60    1
    56    37    38    1
    57    38    39    1
    58    39    40    1
    59    40    41    1
    60    41    42    1
    61    45   100    1
    62    47   101    1
    63    47   102    1
    64    47   103    1
    65    48   104    1
    66    49   105    1
    67    49   106    1
    68    49   107    1
    69    50   108    1
    70    51    59    1
    71    52   109    1
    72    52   110    1
    73    52   111    1
    74    53    54    1
    75    54    55    2
    76    54    56    1
    77    56   112    1
    78    56   113    1
    79    56   114    1
    80    57   115    1
    81    57   116    1
    82    57   117    1
    83    58   118    1
    84    58   119    1
    85    58   120    1
    86    59   121    1
    87    59   122    1
    88    59   123    1
    89    60    61    2
    90     1    47    1
    91     1    62    1
    92     2    63    1
    93     3    64    1
    94     4    65    1
    95     5     6    1
    96     7     8    2
    97     9    78    1
    98    15    79    1
    99    18    80    1
   100    18    81    1
   101    19    82    1
   102    19    83    1
   103    20    23    1
   104    21    84    1
   105    21    85    1
   106    22    86    1
   107    22    87    1
   108    27    45    1
   109    28    34    1
   110    32    58    1
   111    33    46    2
   112    36    51    1
   113    36    66    1
   114    37    52    1
   115    37    67    1
   116    38    53    1
   117    38    68    1
   118    42    48    1
   119    42    72    1
   120    43    44    2
   121    60    73    1
   122    61    74    1
   123    39    69    1
   124    39    57    1
   125    40    70    1
   126    40    50    1
   127    41    71    1
   128    41    49    1
