@<TRIPOS>MOLECULE
*****
 123 128 0 0 0
SMALL
GASTEIGER

@<TRIPOS>ATOM
     1 C         1.067709   -0.220292   4.051809 C.3        1 UNL1     0.0009
     2 C         1.171846   1.176884   5.265932 C.2        1 UNL1     -0.0787
     3 C         1.960312   2.116995   6.03441 C.2        1 UNL1     -0.0649
     4 C         1.407827   3.388821   7.005788 C.2        1 UNL1     -0.0542
     5 C         1.758315   4.6143   7.624203 C.2        1 UNL1     0.0115
     6 C         2.946791   5.554317   7.96657 C.3        1 UNL1     -0.0348
     7 C         0.589397   5.600607   8.111867 C.2        1 UNL1     0.2441
     8 O         0.247989   5.700293   9.28235 O.2        1 UNL1     -0.2702
     9 N         0.163086   6.530646   7.147793 N.am        1 UNL1     -0.2772
     10 C         -0.8377   5.992995   6.371467 C.2        1 UNL1     0.1049
     11 C         -0.448334   5.228929   5.367067 C.2        1 UNL1     0.0801
     12 C         -3.014311   4.768045   6.51002 C.ar        1 UNL1     0.0753
     13 C         -2.463393   3.842014   5.567913 C.ar        1 UNL1     0.0305
     14 C         -1.211046   4.117249   4.867254 C.2        1 UNL1     0.0924
     15 N         0.775753   5.050676   4.841362 N.pl3        1 UNL1     -0.3170
     16 C         0.631936   4.250036   3.65454 C.3        1 UNL1     0.1275
     17 N         -0.610003   3.428722   3.901022 N.2        1 UNL1     -0.2557
     18 C         0.292289   5.197763   2.508175 C.3        1 UNL1     0.0016
     19 C         1.374483   6.262047   2.42016 C.3        1 UNL1     0.0026
     20 N         2.656558   5.608179   2.197066 N.3        1 UNL1     -0.3018
     21 C         3.041954   4.630972   3.217313 C.3        1 UNL1     0.0026
     22 C         1.943216   3.568893   3.285572 C.3        1 UNL1     0.0016
     23 C         3.700196   6.533147   1.802228 C.3        1 UNL1     0.0012
     24 C         3.447568   7.05456   0.37883 C.3        1 UNL1     -0.0339
     25 C         4.76605   7.286387   -0.377422 C.3        1 UNL1     -0.0615
     26 C         2.533538   6.100784   -0.370598 C.3        1 UNL1     -0.0615
     27 C         -4.266106   4.556051   7.082895 C.ar        1 UNL1     0.1347
     28 C         -5.073804   3.47935   6.762913 C.ar        1 UNL1     0.0342
     29 C         -4.490187   2.555408   5.870228 C.ar        1 UNL1     0.1435
     30 C         -3.222311   2.736057   5.316083 C.ar        1 UNL1     0.0774
     31 O         -5.192594   1.512373   5.376559 O.3        1 UNL1     -0.4436
     32 C         -4.470649   1.112433   4.201946 C.3        1 UNL1     0.3143
     33 C         -3.056813   1.61388   4.41603 C.2        1 UNL1     0.2504
     34 C         -6.519829   3.318677   7.141457 C.3        1 UNL1     -0.0327
     35 O         -4.41059   -0.31922   4.205708 O.2        1 UNL1     -0.4528
     36 C         -4.304873   -1.365933   0.558613 C.3        1 UNL1     0.0854
     37 C         -3.273686   -0.962044   -0.564351 C.3        1 UNL1     0.0236
     38 C         -2.565358   -2.194639   -1.306459 C.3        1 UNL1     0.1131
     39 C         -1.885356   -3.339489   -0.452535 C.3        1 UNL1     0.0200
     40 C         -0.94287   -2.960257   0.87047 C.3        1 UNL1     0.0661
     41 C         0.317766   -1.825561   0.899973 C.3        1 UNL1     0.0091
     42 C         0.90843   -0.737944   2.254081 C.3        1 UNL1     0.0661
     43 C         -2.247498   6.007497   6.789334 C.2        1 UNL1     0.2131
     44 O         -2.749139   7.022912   7.236576 O.2        1 UNL1     -0.2851
     45 O         -4.709475   5.481816   8.025137 O.3        1 UNL1     -0.5056
     46 O         -2.024178   1.17268   3.963413 O.2        1 UNL1     -0.2836
     47 C         1.482931   -1.554513   4.728143 C.3        1 UNL1     -0.0566
     48 O         2.339173   -1.071095   2.051347 O.3        1 UNL1     -0.3909
     49 C         0.23652   -0.973327   -0.34686 C.3        1 UNL1     -0.0577
     50 O         -1.73833   -2.829023   2.031393 O.3        1 UNL1     -0.3910
     51 O         -4.34894   -2.735272   0.890878 O.3        1 UNL1     -0.3753
     52 C         -2.497627   0.345237   -0.198701 C.3        1 UNL1     -0.0564
     53 O         -1.872091   -1.810346   -2.580832 O.3        1 UNL1     -0.4608
     54 C         -0.687264   -2.332206   -3.030026 C.2        1 UNL1     0.3042
     55 O         0.425103   -1.808513   -2.982875 O.2        1 UNL1     -0.2512
     56 C         -0.813654   -3.723938   -3.581227 C.3        1 UNL1     0.0332
     57 C         -2.951749   -4.520933   -0.293882 C.3        1 UNL1     -0.0567
     58 C         -5.099605   1.883609   3.01821 C.3        1 UNL1     0.0210
     59 C         -5.515154   -3.423809   0.441736 C.3        1 UNL1     0.0372
     60 C         -4.166416   -0.618055   1.837937 C.2        1 UNL1     -0.0208
     61 C         -4.182107   -1.05197   3.098974 C.2        1 UNL1     0.0882
     62 H         -0.025958   -0.165917   4.112207 H        1 UNL1     0.0365
     63 H         0.119858   1.291033   5.535675 H        1 UNL1     0.0576
     64 H         3.044077   2.185731   5.916773 H        1 UNL1     0.0615
     65 H         0.34068   3.182043   7.12378 H        1 UNL1     0.0622
     66 H         -5.284516   -1.082755   0.148545 H        1 UNL1     0.0645
     67 H         -3.90421   -0.55228   -1.372493 H        1 UNL1     0.0362
     68 H         -3.447527   -2.661556   -1.77045 H        1 UNL1     0.0741
     69 H         -1.197368   -3.883886   -1.085555 H        1 UNL1     0.0359
     70 H         -0.410548   -3.921005   1.007063 H        1 UNL1     0.0600
     71 H         1.17552   -2.483259   0.657797 H        1 UNL1     0.0348
     72 H         0.331761   -1.539299   2.738435 H        1 UNL1     0.0602
     73 H         -4.169276   0.424144   1.635302 H        1 UNL1     0.0628
     74 H         -4.121564   -2.100928   3.390967 H        1 UNL1     0.1022
     75 H         3.791077   4.973248   8.409937 H        1 UNL1     0.0279
     76 H         3.423665   6.058237   7.128879 H        1 UNL1     0.0279
     77 H         2.713826   6.254663   8.782011 H        1 UNL1     0.0279
     78 H         0.938296   6.763042   6.530445 H        1 UNL1     0.1553
     79 H         1.538894   5.687696   4.978306 H        1 UNL1     0.1484
     80 H         0.220247   4.621894   1.57761 H        1 UNL1     0.0317
     81 H         -0.685802   5.665471   2.663865 H        1 UNL1     0.0317
     82 H         1.402223   6.890095   3.322766 H        1 UNL1     0.0428
     83 H         1.111668   6.928037   1.597704 H        1 UNL1     0.0428
     84 H         3.968832   4.09716   2.985467 H        1 UNL1     0.0428
     85 H         3.244559   5.109227   4.18558 H        1 UNL1     0.0428
     86 H         2.319008   2.805233   3.941005 H        1 UNL1     0.0317
     87 H         1.857984   3.055336   2.320124 H        1 UNL1     0.0317
     88 H         3.681725   7.384784   2.494809 H        1 UNL1     0.0429
     89 H         4.693207   6.072856   1.884905 H        1 UNL1     0.0429
     90 H         2.905715   8.006069   0.43575 H        1 UNL1     0.0308
     91 H         5.448623   6.440028   -0.255472 H        1 UNL1     0.0233
     92 H         4.578073   7.445032   -1.441896 H        1 UNL1     0.0233
     93 H         5.29859   8.177934   -0.024747 H        1 UNL1     0.0233
     94 H         2.654374   6.232661   -1.451266 H        1 UNL1     0.0233
     95 H         2.79157   5.066531   -0.126258 H        1 UNL1     0.0233
     96 H         1.483665   6.272055   -0.116821 H        1 UNL1     0.0233
     97 H         -7.159205   3.208836   6.270615 H        1 UNL1     0.0280
     98 H         -6.690236   2.423819   7.754193 H        1 UNL1     0.0280
     99 H         -6.854118   4.204425   7.706078 H        1 UNL1     0.0280
     100 H         -4.084183   5.685378   8.698334 H        1 UNL1     0.2922
     101 H         0.59647   -2.154569   4.932532 H        1 UNL1     0.0236
     102 H         2.094313   -1.411643   5.618526 H        1 UNL1     0.0236
     103 H         2.098437   -2.182298   4.062387 H        1 UNL1     0.0236
     104 H         2.392726   -2.022685   1.835524 H        1 UNL1     0.2098
     105 H         1.165002   -0.909817   -0.908731 H        1 UNL1     0.0234
     106 H         -0.591652   -1.217359   -1.012071 H        1 UNL1     0.0234
     107 H         0.0   0.0   0.0 H        1 UNL1     0.0234
     108 H         -2.613174   -3.212769   1.828524 H        1 UNL1     0.2098
     109 H         -3.168764   1.206647   -0.07517 H        1 UNL1     0.0234
     110 H         -1.870634   0.238396   0.693044 H        1 UNL1     0.0234
     111 H         -1.790304   0.630429   -0.98883 H        1 UNL1     0.0234
     112 H         0.167314   -4.087869   -3.901542 H        1 UNL1     0.0342
     113 H         -1.269789   -4.407542   -2.866755 H        1 UNL1     0.0342
     114 H         -1.463729   -3.684775   -4.466119 H        1 UNL1     0.0342
     115 H         -2.46749   -5.50667   -0.262187 H        1 UNL1     0.0234
     116 H         -3.580387   -4.435197   0.594664 H        1 UNL1     0.0234
     117 H         -3.613563   -4.636691   -1.169407 H        1 UNL1     0.0234
     118 H         -5.660188   1.216722   2.339965 H        1 UNL1     0.0309
     119 H         -5.753286   2.701632   3.337179 H        1 UNL1     0.0309
     120 H         -4.346568   2.33506   2.363051 H        1 UNL1     0.0309
     121 H         -5.671718   -4.274296   1.104695 H        1 UNL1     0.0524
     122 H         -6.418486   -2.793302   0.491629 H        1 UNL1     0.0524
     123 H         -5.379619   -3.765388   -0.58054 H        1 UNL1     0.0524
@<TRIPOS>BOND
     1     1     2    1
     2     1    42    1
     3     2     3    2
     4     3     4    1
     5     4     5    2
     6     5     7    1
     7     6    75    1
     8     6    76    1
     9     6    77    1
    10     7     9   am
    11     9    10    1
    12    10    11    2
    13    10    43    1
    14    11    14    1
    15    11    15    1
    16    12    13   ar
    17    12    27   ar
    18    12    43    1
    19    13    14    1
    20    13    30   ar
    21    14    17    2
    22    15    16    1
    23    16    17    1
    24    16    18    1
    25    16    22    1
    26    18    19    1
    27    19    20    1
    28    20    21    1
    29    21    22    1
    30    23    24    1
    31    23    88    1
    32    23    89    1
    33    24    25    1
    34    24    26    1
    35    24    90    1
    36    25    91    1
    37    25    92    1
    38    25    93    1
    39    26    94    1
    40    26    95    1
    41    26    96    1
    42    27    28   ar
    43    28    29   ar
    44    29    30   ar
    45    29    31    1
    46    30    33    1
    47    31    32    1
    48    32    33    1
    49    32    35    1
    50    34    97    1
    51    34    98    1
    52    34    99    1
    53    35    61    1
    54    36    37    1
    55    36    60    1
    56    37    38    1
    57    38    39    1
    58    39    40    1
    59    40    41    1
    60    41    42    1
    61    45   100    1
    62    47   101    1
    63    47   102    1
    64    47   103    1
    65    48   104    1
    66    49   105    1
    67    49   106    1
    68    49   107    1
    69    50   108    1
    70    51    59    1
    71    52   109    1
    72    52   110    1
    73    52   111    1
    74    53    54    1
    75    54    55    2
    76    54    56    1
    77    56   112    1
    78    56   113    1
    79    56   114    1
    80    57   115    1
    81    57   116    1
    82    57   117    1
    83    58   118    1
    84    58   119    1
    85    58   120    1
    86    59   121    1
    87    59   122    1
    88    59   123    1
    89    60    61    2
    90     1    47    1
    91     1    62    1
    92     2    63    1
    93     3    64    1
    94     4    65    1
    95     5     6    1
    96     7     8    2
    97     9    78    1
    98    15    79    1
    99    18    80    1
   100    18    81    1
   101    19    82    1
   102    19    83    1
   103    20    23    1
   104    21    84    1
   105    21    85    1
   106    22    86    1
   107    22    87    1
   108    27    45    1
   109    28    34    1
   110    32    58    1
   111    33    46    2
   112    36    51    1
   113    36    66    1
   114    37    52    1
   115    37    67    1
   116    38    53    1
   117    38    68    1
   118    42    48    1
   119    42    72    1
   120    43    44    2
   121    60    73    1
   122    61    74    1
   123    39    69    1
   124    39    57    1
   125    40    70    1
   126    40    50    1
   127    41    71    1
   128    41    49    1
