@<TRIPOS>MOLECULE
*****
 123 128 0 0 0
SMALL
GASTEIGER

@<TRIPOS>ATOM
     1 C         5.17091   1.739666   0.484277 C.3        1 UNL1     0.0009
     2 C         6.607947   2.543009   -0.368132 C.2        1 UNL1     -0.0787
     3 C         7.888795   2.442378   -1.035475 C.2        1 UNL1     -0.0649
     4 C         8.767481   3.675757   -1.792471 C.2        1 UNL1     -0.0542
     5 C         9.786827   3.966362   -2.732451 C.2        1 UNL1     0.0115
     6 C         10.912797   3.338703   -3.599375 C.3        1 UNL1     -0.0348
     7 C         9.88404   5.449306   -3.339424 C.2        1 UNL1     0.2441
     8 O         10.709874   6.269567   -2.962996 O.2        1 UNL1     -0.2702
     9 N         9.132692   5.657344   -4.509188 N.am        1 UNL1     -0.2772
     10 C         7.851073   6.046389   -4.193883 C.2        1 UNL1     0.1049
     11 C         7.003927   5.076557   -3.90064 C.2        1 UNL1     0.0801
     12 C         6.557361   7.655685   -2.78186 C.ar        1 UNL1     0.0753
     13 C         5.796862   6.529232   -2.333136 C.ar        1 UNL1     0.0305
     14 C         5.910633   5.223175   -2.978367 C.2        1 UNL1     0.0924
     15 N         7.123968   3.747325   -4.059576 N.pl3        1 UNL1     -0.3170
     16 C         5.853442   3.150499   -3.743635 C.3        1 UNL1     0.1275
     17 N         5.220005   4.107096   -2.763124 N.2        1 UNL1     -0.2557
     18 C         4.999085   3.210802   -5.006227 C.3        1 UNL1     0.0016
     19 C         5.751297   2.5251   -6.135643 C.3        1 UNL1     0.0026
     20 N         6.019469   1.146607   -5.749808 N.3        1 UNL1     -0.3018
     21 C         6.784123   0.985135   -4.511422 C.3        1 UNL1     0.0026
     22 C         6.008049   1.677306   -3.389592 C.3        1 UNL1     0.0016
     23 C         6.461089   0.326018   -6.859875 C.3        1 UNL1     0.0012
     24 C         5.303944   0.078381   -7.840409 C.3        1 UNL1     -0.0339
     25 C         5.329801   1.081242   -9.005595 C.3        1 UNL1     -0.0615
     26 C         5.340138   -1.356509   -8.336958 C.3        1 UNL1     -0.0615
     27 C         6.355658   8.923868   -2.24228 C.ar        1 UNL1     0.1347
     28 C         5.398313   9.195354   -1.281116 C.ar        1 UNL1     0.0342
     29 C         4.695315   8.062267   -0.819519 C.ar        1 UNL1     0.1435
     30 C         4.911818   6.779732   -1.324939 C.ar        1 UNL1     0.0774
     31 O         3.655623   8.177894   0.035278 O.3        1 UNL1     -0.4436
     32 C         2.931561   6.946333   -0.105665 C.3        1 UNL1     0.3143
     33 C         3.942398   5.951293   -0.638878 C.2        1 UNL1     0.2504
     34 C         4.954483   10.562358   -0.840192 C.3        1 UNL1     -0.0327
     35 O         2.571835   6.510589   1.21114 O.2        1 UNL1     -0.4528
     36 C         -0.675168   4.584111   0.819035 C.3        1 UNL1     0.0854
     37 C         -0.98388   3.323862   -0.07762 C.3        1 UNL1     0.0236
     38 C         -1.585675   2.064081   0.711392 C.3        1 UNL1     0.1131
     39 C         -0.859193   1.53216   2.01199 C.3        1 UNL1     0.0200
     40 C         0.801788   1.383655   2.051055 C.3        1 UNL1     0.0661
     41 C         1.758275   0.612831   0.881195 C.3        1 UNL1     0.0091
     42 C         3.46578   0.972198   0.314905 C.3        1 UNL1     0.0661
     43 C         7.505586   7.446015   -3.903986 C.2        1 UNL1     0.2131
     44 O         7.906148   8.343203   -4.62325 O.2        1 UNL1     -0.2851
     45 O         7.169183   9.957411   -2.702068 O.3        1 UNL1     -0.5056
     46 O         3.956403   4.747763   -0.507827 O.2        1 UNL1     -0.2836
     47 C         5.568357   1.30983   1.922074 C.3        1 UNL1     -0.0566
     48 O         3.911924   -0.439687   0.39646 O.3        1 UNL1     -0.3909
     49 C         0.922075   0.381431   -0.357642 C.3        1 UNL1     -0.0577
     50 O         1.40467   2.600537   2.442786 O.3        1 UNL1     -0.3910
     51 O         -0.7978   4.394999   2.210664 O.3        1 UNL1     -0.3753
     52 C         0.058798   3.161239   -1.231451 C.3        1 UNL1     -0.0564
     53 O         -2.191297   1.025957   -0.187411 O.3        1 UNL1     -0.4608
     54 C         -2.415124   -0.283655   0.14837 C.2        1 UNL1     0.3042
     55 O         -1.845073   -1.277562   -0.299991 O.2        1 UNL1     -0.2512
     56 C         -3.443286   -0.460073   1.22933 C.3        1 UNL1     0.0332
     57 C         -1.577393   2.202754   3.273999 C.3        1 UNL1     -0.0567
     58 C         1.855407   7.193081   -1.188503 C.3        1 UNL1     0.0210
     59 C         -1.138868   5.568434   2.94727 C.3        1 UNL1     0.0372
     60 C         0.654653   5.210757   0.586545 C.2        1 UNL1     -0.0208
     61 C         1.569489   5.64457   1.454662 C.2        1 UNL1     0.0882
     62 H         4.696866   2.724711   0.571913 H        1 UNL1     0.0365
     63 H         6.343723   3.59731   -0.262748 H        1 UNL1     0.0576
     64 H         8.344431   1.474655   -1.256871 H        1 UNL1     0.0615
     65 H         8.282488   4.592111   -1.445254 H        1 UNL1     0.0622
     66 H         -1.41888   5.331894   0.509588 H        1 UNL1     0.0645
     67 H         -1.849663   3.634624   -0.687871 H        1 UNL1     0.0362
     68 H         -2.531505   2.502741   1.064245 H        1 UNL1     0.0741
     69 H         -1.192273   0.521707   2.208076 H        1 UNL1     0.0359
     70 H         0.913522   0.723346   2.932287 H        1 UNL1     0.0600
     71 H         1.800582   -0.408304   1.308339 H        1 UNL1     0.0348
     72 H         3.362043   1.460839   1.294591 H        1 UNL1     0.0602
     73 H         0.771558   5.407534   -0.450209 H        1 UNL1     0.0628
     74 H         1.552953   5.434208   2.524574 H        1 UNL1     0.1022
     75 H         10.955496   2.233385   -3.446134 H        1 UNL1     0.0279
     76 H         10.797914   3.421423   -4.677813 H        1 UNL1     0.0279
     77 H         11.918839   3.641688   -3.274136 H        1 UNL1     0.0279
     78 H         9.068452   4.787374   -5.033691 H        1 UNL1     0.1553
     79 H         7.787668   3.317986   -4.67772 H        1 UNL1     0.1484
     80 H         4.037178   2.721641   -4.810719 H        1 UNL1     0.0317
     81 H         4.773983   4.24789   -5.277202 H        1 UNL1     0.0317
     82 H         6.682588   3.054669   -6.384973 H        1 UNL1     0.0428
     83 H         5.125087   2.581136   -7.026581 H        1 UNL1     0.0428
     84 H         6.902975   -0.057952   -4.202141 H        1 UNL1     0.0428
     85 H         7.814738   1.351294   -4.616672 H        1 UNL1     0.0428
     86 H         6.525201   1.426249   -2.482116 H        1 UNL1     0.0317
     87 H         5.027913   1.201458   -3.263108 H        1 UNL1     0.0317
     88 H         7.257437   0.866252   -7.388337 H        1 UNL1     0.0429
     89 H         6.892444   -0.620438   -6.509266 H        1 UNL1     0.0429
     90 H         4.351967   0.186934   -7.307334 H        1 UNL1     0.0308
     91 H         6.279125   1.036672   -9.54772 H        1 UNL1     0.0233
     92 H         4.510114   0.88649   -9.701148 H        1 UNL1     0.0233
     93 H         5.204659   2.117153   -8.667863 H        1 UNL1     0.0233
     94 H         4.642543   -1.485054   -9.171627 H        1 UNL1     0.0233
     95 H         6.343606   -1.602676   -8.69531 H        1 UNL1     0.0233
     96 H         5.065534   -2.05965   -7.545659 H        1 UNL1     0.0233
     97 H         4.162018   10.514192   -0.099307 H        1 UNL1     0.0280
     98 H         5.768862   11.131065   -0.37263 H        1 UNL1     0.0280
     99 H         4.580686   11.127335   -1.709774 H        1 UNL1     0.0280
     100 H         6.703079   10.708773   -3.024285 H        1 UNL1     0.2922
     101 H         4.705426   0.877868   2.428448 H        1 UNL1     0.0236
     102 H         6.021331   2.114517   2.50024 H        1 UNL1     0.0236
     103 H         6.323166   0.505807   1.920202 H        1 UNL1     0.0236
     104 H         4.332367   -0.5662   1.269496 H        1 UNL1     0.2098
     105 H         0.710292   1.280492   -0.930921 H        1 UNL1     0.0234
     106 H         1.289199   -0.407422   -1.014039 H        1 UNL1     0.0234
     107 H         0.0   -0.0   0.0 H        1 UNL1     0.0234
     108 H         1.206398   3.258962   1.749293 H        1 UNL1     0.2098
     109 H         1.083922   3.046029   -0.852558 H        1 UNL1     0.0234
     110 H         -0.176007   2.334379   -1.910355 H        1 UNL1     0.0234
     111 H         0.080721   4.043842   -1.884503 H        1 UNL1     0.0234
     112 H         -3.56767   -1.523609   1.454642 H        1 UNL1     0.0342
     113 H         -3.194034   0.103029   2.127457 H        1 UNL1     0.0342
     114 H         -4.403837   -0.08066   0.854427 H        1 UNL1     0.0342
     115 H         -2.647409   1.956403   3.31356 H        1 UNL1     0.0234
     116 H         -1.140187   1.922466   4.234383 H        1 UNL1     0.0234
     117 H         -1.614084   3.304665   3.225128 H        1 UNL1     0.0234
     118 H         0.955742   7.681706   -0.775156 H        1 UNL1     0.0309
     119 H         2.224725   7.78018   -2.035333 H        1 UNL1     0.0309
     120 H         1.464617   6.261706   -1.612686 H        1 UNL1     0.0309
     121 H         -0.333523   6.289515   2.810089 H        1 UNL1     0.0524
     122 H         -2.068669   6.03585   2.582537 H        1 UNL1     0.0524
     123 H         -1.253607   5.330624   4.001014 H        1 UNL1     0.0524
@<TRIPOS>BOND
     1     1     2    1
     2     1    42    1
     3     2     3    2
     4     3     4    1
     5     4     5    2
     6     5     7    1
     7     6    75    1
     8     6    76    1
     9     6    77    1
    10     7     9   am
    11     9    10    1
    12    10    11    2
    13    10    43    1
    14    11    14    1
    15    11    15    1
    16    12    13   ar
    17    12    27   ar
    18    12    43    1
    19    13    14    1
    20    13    30   ar
    21    14    17    2
    22    15    16    1
    23    16    17    1
    24    16    18    1
    25    16    22    1
    26    18    19    1
    27    19    20    1
    28    20    21    1
    29    21    22    1
    30    23    24    1
    31    23    88    1
    32    23    89    1
    33    24    25    1
    34    24    26    1
    35    24    90    1
    36    25    91    1
    37    25    92    1
    38    25    93    1
    39    26    94    1
    40    26    95    1
    41    26    96    1
    42    27    28   ar
    43    28    29   ar
    44    29    30   ar
    45    29    31    1
    46    30    33    1
    47    31    32    1
    48    32    33    1
    49    32    35    1
    50    34    97    1
    51    34    98    1
    52    34    99    1
    53    35    61    1
    54    36    37    1
    55    36    60    1
    56    37    38    1
    57    38    39    1
    58    39    40    1
    59    40    41    1
    60    41    42    1
    61    45   100    1
    62    47   101    1
    63    47   102    1
    64    47   103    1
    65    48   104    1
    66    49   105    1
    67    49   106    1
    68    49   107    1
    69    50   108    1
    70    51    59    1
    71    52   109    1
    72    52   110    1
    73    52   111    1
    74    53    54    1
    75    54    55    2
    76    54    56    1
    77    56   112    1
    78    56   113    1
    79    56   114    1
    80    57   115    1
    81    57   116    1
    82    57   117    1
    83    58   118    1
    84    58   119    1
    85    58   120    1
    86    59   121    1
    87    59   122    1
    88    59   123    1
    89    60    61    2
    90     1    47    1
    91     1    62    1
    92     2    63    1
    93     3    64    1
    94     4    65    1
    95     5     6    1
    96     7     8    2
    97     9    78    1
    98    15    79    1
    99    18    80    1
   100    18    81    1
   101    19    82    1
   102    19    83    1
   103    20    23    1
   104    21    84    1
   105    21    85    1
   106    22    86    1
   107    22    87    1
   108    27    45    1
   109    28    34    1
   110    32    58    1
   111    33    46    2
   112    36    51    1
   113    36    66    1
   114    37    52    1
   115    37    67    1
   116    38    53    1
   117    38    68    1
   118    42    48    1
   119    42    72    1
   120    43    44    2
   121    60    73    1
   122    61    74    1
   123    39    69    1
   124    39    57    1
   125    40    70    1
   126    40    50    1
   127    41    71    1
   128    41    49    1
