@<TRIPOS>MOLECULE
*****
 123 128 0 0 0
SMALL
GASTEIGER

@<TRIPOS>ATOM
     1 C         4.994989   2.197397   0.482993 C.3        1 UNL1     0.0009
     2 C         6.3832   3.059115   -0.39299 C.2        1 UNL1     -0.0787
     3 C         7.690572   3.024036   -1.013954 C.2        1 UNL1     -0.0649
     4 C         8.481086   4.268664   -1.846028 C.2        1 UNL1     -0.0542
     5 C         9.502644   4.575915   -2.77828 C.2        1 UNL1     0.0115
     6 C         10.71017   3.987478   -3.558629 C.3        1 UNL1     -0.0348
     7 C         9.487653   6.008108   -3.503253 C.2        1 UNL1     0.2441
     8 O         10.222799   6.928603   -3.17344 O.2        1 UNL1     -0.2702
     9 N         8.762247   6.051546   -4.706603 N.am        1 UNL1     -0.2772
     10 C         7.440598   6.344613   -4.460276 C.2        1 UNL1     0.1049
     11 C         6.674125   5.32733   -4.111168 C.2        1 UNL1     0.0801
     12 C         5.958856   7.935497   -3.222995 C.ar        1 UNL1     0.0753
     13 C         5.287218   6.783217   -2.703609 C.ar        1 UNL1     0.0305
     14 C         5.540348   5.44578   -3.234871 C.2        1 UNL1     0.0924
     15 N         6.918483   4.006416   -4.155902 N.pl3        1 UNL1     -0.3170
     16 C         5.69633   3.322076   -3.826852 C.3        1 UNL1     0.1275
     17 N         4.945531   4.29155   -2.946997 N.2        1 UNL1     -0.2557
     18 C         4.884914   3.201943   -5.113271 C.3        1 UNL1     0.0016
     19 C         5.734857   2.500374   -6.160643 C.3        1 UNL1     0.0026
     20 N         6.111931   1.18787   -5.654505 N.3        1 UNL1     -0.3018
     21 C         6.843991   1.197372   -4.386291 C.3        1 UNL1     0.0026
     22 C         5.969982   1.902551   -3.347673 C.3        1 UNL1     0.0016
     23 C         6.664153   0.325303   -6.680015 C.3        1 UNL1     0.0012
     24 C         5.569082   -0.105825   -7.668298 C.3        1 UNL1     -0.0339
     25 C         5.931824   0.278205   -9.11225 C.3        1 UNL1     -0.0615
     26 C         5.305017   -1.595606   -7.535621 C.3        1 UNL1     -0.0615
     27 C         5.625316   9.218765   -2.796272 C.ar        1 UNL1     0.1347
     28 C         4.614282   9.476812   -1.887827 C.ar        1 UNL1     0.0342
     29 C         4.00002   8.324287   -1.353474 C.ar        1 UNL1     0.1435
     30 C         4.348379   7.030876   -1.744567 C.ar        1 UNL1     0.0774
     31 O         2.924748   8.411524   -0.54034 O.3        1 UNL1     -0.4436
     32 C         2.319535   7.111065   -0.598633 C.3        1 UNL1     0.3143
     33 C         3.433705   6.174097   -1.019262 C.2        1 UNL1     0.2504
     34 C         4.034341   10.827908   -1.574286 C.3        1 UNL1     -0.0327
     35 O         1.954307   6.750834   0.739311 O.2        1 UNL1     -0.4528
     36 C         -1.090909   4.507647   0.418589 C.3        1 UNL1     0.0854
     37 C         -1.25357   3.156538   -0.378636 C.3        1 UNL1     0.0236
     38 C         -1.767238   1.913832   0.49519 C.3        1 UNL1     0.1131
     39 C         -1.042114   1.557121   1.855051 C.3        1 UNL1     0.0200
     40 C         0.623089   1.566191   1.95229 C.3        1 UNL1     0.0661
     41 C         1.685417   0.795756   0.877349 C.3        1 UNL1     0.0091
     42 C         3.372625   1.264708   0.330709 C.3        1 UNL1     0.0661
     43 C         6.960923   7.72507   -4.297166 C.2        1 UNL1     0.2131
     44 O         7.304384   8.59491   -5.077006 O.2        1 UNL1     -0.2851
     45 O         6.358461   10.28284   -3.317504 O.3        1 UNL1     -0.5056
     46 O         3.551048   4.991377   -0.788486 O.2        1 UNL1     -0.2836
     47 C         5.378626   1.922617   1.961945 C.3        1 UNL1     -0.0566
     48 O         3.940534   -0.088877   0.541431 O.3        1 UNL1     -0.3909
     49 C         0.917418   0.389687   -0.360706 C.3        1 UNL1     -0.0577
     50 O         1.100189   2.860978   2.258271 O.3        1 UNL1     -0.3910
     51 O         -1.244911   4.420078   1.817176 O.3        1 UNL1     -0.3753
     52 C         -0.160598   2.998987   -1.485677 C.3        1 UNL1     -0.0564
     53 O         -2.245285   0.755602   -0.330824 O.3        1 UNL1     -0.4608
     54 C         -2.359427   -0.538528   0.105212 C.2        1 UNL1     0.3042
     55 O         -1.596297   -1.475152   -0.127613 O.2        1 UNL1     -0.2512
     56 C         -3.536873   -0.766721   1.00979 C.3        1 UNL1     0.0332
     57 C         -1.861508   2.257454   3.036704 C.3        1 UNL1     -0.0567
     58 C         1.264305   7.1699   -1.727596 C.3        1 UNL1     0.0210
     59 C         -2.451325   4.988791   2.324123 C.3        1 UNL1     0.0372
     60 C         0.184655   5.23374   0.171838 C.2        1 UNL1     -0.0208
     61 C         1.025788   5.818276   1.025979 C.2        1 UNL1     0.0882
     62 H         4.43167   3.138315   0.475449 H        1 UNL1     0.0365
     63 H         6.021886   4.08956   -0.382788 H        1 UNL1     0.0576
     64 H         8.238715   2.087899   -1.141604 H        1 UNL1     0.0615
     65 H         7.90391   5.161183   -1.58959 H        1 UNL1     0.0622
     66 H         -1.887392   5.156387   0.027696 H        1 UNL1     0.0645
     67 H         -2.121763   3.336174   -1.036307 H        1 UNL1     0.0362
     68 H         -2.760433   2.290147   0.784105 H        1 UNL1     0.0741
     69 H         -1.289854   0.539197   2.124984 H        1 UNL1     0.0359
     70 H         0.762588   0.991719   2.888016 H        1 UNL1     0.0600
     71 H         1.804154   -0.179611   1.388736 H        1 UNL1     0.0348
     72 H         3.191086   1.818567   1.263233 H        1 UNL1     0.0602
     73 H         0.319795   5.356806   -0.87403 H        1 UNL1     0.0628
     74 H         0.990603   5.693647   2.108784 H        1 UNL1     0.1022
     75 H         10.79825   2.88953   -3.374815 H        1 UNL1     0.0279
     76 H         10.658556   4.039919   -4.643827 H        1 UNL1     0.0279
     77 H         11.677717   4.348892   -3.180562 H        1 UNL1     0.0279
     78 H         8.794815   5.140164   -5.158707 H        1 UNL1     0.1553
     79 H         7.63935   3.592061   -4.71768 H        1 UNL1     0.1484
     80 H         3.964513   2.643308   -4.904576 H        1 UNL1     0.0317
     81 H         4.577313   4.188777   -5.475475 H        1 UNL1     0.0317
     82 H         6.623051   3.09198   -6.427155 H        1 UNL1     0.0428
     83 H         5.137848   2.426833   -7.07016 H        1 UNL1     0.0428
     84 H         7.045029   0.197844   -3.988373 H        1 UNL1     0.0428
     85 H         7.840646   1.647499   -4.492968 H        1 UNL1     0.0428
     86 H         6.475362   1.773792   -2.408525 H        1 UNL1     0.0317
     87 H         5.032667   1.349918   -3.209346 H        1 UNL1     0.0317
     88 H         7.426885   0.892681   -7.229212 H        1 UNL1     0.0429
     89 H         7.166115   -0.546161   -6.240289 H        1 UNL1     0.0429
     90 H         4.628448   0.390074   -7.400896 H        1 UNL1     0.0308
     91 H         6.967051   0.0125   -9.346361 H        1 UNL1     0.0233
     92 H         5.265198   -0.216399   -9.822593 H        1 UNL1     0.0233
     93 H         5.830293   1.354635   -9.296166 H        1 UNL1     0.0233
     94 H         4.843411   -1.980404   -8.451419 H        1 UNL1     0.0233
     95 H         6.246905   -2.129852   -7.382683 H        1 UNL1     0.0233
     96 H         4.637607   -1.809359   -6.696073 H        1 UNL1     0.0233
     97 H         2.966687   10.868081   -1.76853 H        1 UNL1     0.0280
     98 H         4.157709   11.095935   -0.516837 H        1 UNL1     0.0280
     99 H         4.527496   11.594167   -2.194559 H        1 UNL1     0.0280
     100 H         7.292055   10.170241   -3.280828 H        1 UNL1     0.2922
     101 H         4.477051   1.753203   2.550262 H        1 UNL1     0.0236
     102 H         6.008186   2.70029   2.393063 H        1 UNL1     0.0236
     103 H         5.963473   0.994212   2.072448 H        1 UNL1     0.0236
     104 H         4.261001   -0.134016   1.463512 H        1 UNL1     0.2098
     105 H         0.687848   1.210086   -1.036023 H        1 UNL1     0.0234
     106 H         1.351339   -0.443904   -0.912762 H        1 UNL1     0.0234
     107 H         0.0   -0.0   0.0 H        1 UNL1     0.0234
     108 H         2.06035   2.866019   2.079854 H        1 UNL1     0.2098
     109 H         -0.206853   3.803098   -2.233325 H        1 UNL1     0.0234
     110 H         0.85518   2.932653   -1.081277 H        1 UNL1     0.0234
     111 H         -0.285185   2.063507   -2.047195 H        1 UNL1     0.0234
     112 H         -3.557735   -1.810567   1.337353 H        1 UNL1     0.0342
     113 H         -3.535434   -0.089566   1.86261 H        1 UNL1     0.0342
     114 H         -4.453402   -0.575828   0.434726 H        1 UNL1     0.0342
     115 H         -1.905221   1.624959   3.934048 H        1 UNL1     0.0234
     116 H         -1.463311   3.228279   3.338342 H        1 UNL1     0.0234
     117 H         -2.934711   2.384194   2.812842 H        1 UNL1     0.0234
     118 H         0.233562   7.125469   -1.334404 H        1 UNL1     0.0309
     119 H         1.366487   8.053507   -2.365561 H        1 UNL1     0.0309
     120 H         1.31663   6.304605   -2.397397 H        1 UNL1     0.0309
     121 H         -2.268857   5.281707   3.35769 H        1 UNL1     0.0524
     122 H         -2.751983   5.893971   1.770687 H        1 UNL1     0.0524
     123 H         -3.257905   4.262626   2.277143 H        1 UNL1     0.0524
@<TRIPOS>BOND
     1     1     2    1
     2     1    42    1
     3     2     3    2
     4     3     4    1
     5     4     5    2
     6     5     7    1
     7     6    75    1
     8     6    76    1
     9     6    77    1
    10     7     9   am
    11     9    10    1
    12    10    11    2
    13    10    43    1
    14    11    14    1
    15    11    15    1
    16    12    13   ar
    17    12    27   ar
    18    12    43    1
    19    13    14    1
    20    13    30   ar
    21    14    17    2
    22    15    16    1
    23    16    17    1
    24    16    18    1
    25    16    22    1
    26    18    19    1
    27    19    20    1
    28    20    21    1
    29    21    22    1
    30    23    24    1
    31    23    88    1
    32    23    89    1
    33    24    25    1
    34    24    26    1
    35    24    90    1
    36    25    91    1
    37    25    92    1
    38    25    93    1
    39    26    94    1
    40    26    95    1
    41    26    96    1
    42    27    28   ar
    43    28    29   ar
    44    29    30   ar
    45    29    31    1
    46    30    33    1
    47    31    32    1
    48    32    33    1
    49    32    35    1
    50    34    97    1
    51    34    98    1
    52    34    99    1
    53    35    61    1
    54    36    37    1
    55    36    60    1
    56    37    38    1
    57    38    39    1
    58    39    40    1
    59    40    41    1
    60    41    42    1
    61    45   100    1
    62    47   101    1
    63    47   102    1
    64    47   103    1
    65    48   104    1
    66    49   105    1
    67    49   106    1
    68    49   107    1
    69    50   108    1
    70    51    59    1
    71    52   109    1
    72    52   110    1
    73    52   111    1
    74    53    54    1
    75    54    55    2
    76    54    56    1
    77    56   112    1
    78    56   113    1
    79    56   114    1
    80    57   115    1
    81    57   116    1
    82    57   117    1
    83    58   118    1
    84    58   119    1
    85    58   120    1
    86    59   121    1
    87    59   122    1
    88    59   123    1
    89    60    61    2
    90     1    47    1
    91     1    62    1
    92     2    63    1
    93     3    64    1
    94     4    65    1
    95     5     6    1
    96     7     8    2
    97     9    78    1
    98    15    79    1
    99    18    80    1
   100    18    81    1
   101    19    82    1
   102    19    83    1
   103    20    23    1
   104    21    84    1
   105    21    85    1
   106    22    86    1
   107    22    87    1
   108    27    45    1
   109    28    34    1
   110    32    58    1
   111    33    46    2
   112    36    51    1
   113    36    66    1
   114    37    52    1
   115    37    67    1
   116    38    53    1
   117    38    68    1
   118    42    48    1
   119    42    72    1
   120    43    44    2
   121    60    73    1
   122    61    74    1
   123    39    69    1
   124    39    57    1
   125    40    70    1
   126    40    50    1
   127    41    71    1
   128    41    49    1
