@<TRIPOS>MOLECULE
*****
 123 128 0 0 0
SMALL
GASTEIGER

@<TRIPOS>ATOM
     1 C         4.969114   2.245294   0.527732 C.3        1 UNL1     0.0009
     2 C         6.354236   3.125466   -0.33469 C.2        1 UNL1     -0.0787
     3 C         7.666173   3.106895   -0.946672 C.2        1 UNL1     -0.0649
     4 C         8.44932   4.363496   -1.767643 C.2        1 UNL1     -0.0542
     5 C         9.474028   4.685654   -2.691367 C.2        1 UNL1     0.0115
     6 C         10.693041   4.11344   -3.465899 C.3        1 UNL1     -0.0348
     7 C         9.449023   6.120891   -3.410019 C.2        1 UNL1     0.2441
     8 O         10.172161   7.047523   -3.070977 O.2        1 UNL1     -0.2702
     9 N         8.731552   6.162198   -4.618192 N.am        1 UNL1     -0.2772
     10 C         7.405224   6.440293   -4.379779 C.2        1 UNL1     0.1049
     11 C         6.647075   5.413467   -4.040574 C.2        1 UNL1     0.0801
     12 C         5.898328   8.009943   -3.145763 C.ar        1 UNL1     0.0753
     13 C         5.235244   6.848348   -2.636228 C.ar        1 UNL1     0.0305
     14 C         5.506075   5.516062   -3.171684 C.2        1 UNL1     0.0924
     15 N         6.905591   4.0954   -4.089506 N.pl3        1 UNL1     -0.3170
     16 C         5.688441   3.396817   -3.772048 C.3        1 UNL1     0.1275
     17 N         4.921429   4.354372   -2.893125 N.2        1 UNL1     -0.2557
     18 C         4.88726   3.274041   -5.064618 C.3        1 UNL1     0.0016
     19 C         5.751756   2.586172   -6.109162 C.3        1 UNL1     0.0026
     20 N         6.139073   1.275401   -5.606278 N.3        1 UNL1     -0.3018
     21 C         6.862192   1.286806   -4.332961 C.3        1 UNL1     0.0026
     22 C         5.973656   1.978073   -3.297322 C.3        1 UNL1     0.0016
     23 C         6.707411   0.423329   -6.631758 C.3        1 UNL1     0.0012
     24 C         7.810106   1.168045   -7.400665 C.3        1 UNL1     -0.0339
     25 C         7.848842   0.745375   -8.878469 C.3        1 UNL1     -0.0615
     26 C         7.625609   2.668359   -7.253011 C.3        1 UNL1     -0.0615
     27 C         5.548386   9.287698   -2.715645 C.ar        1 UNL1     0.1347
     28 C         4.528431   9.531018   -1.813128 C.ar        1 UNL1     0.0342
     29 C         3.922617   8.369712   -1.288227 C.ar        1 UNL1     0.1435
     30 C         4.287236   7.081808   -1.682659 C.ar        1 UNL1     0.0774
     31 O         2.840883   8.441994   -0.48223 O.3        1 UNL1     -0.4436
     32 C         2.249775   7.13555   -0.550552 C.3        1 UNL1     0.3143
     33 C         3.376607   6.212216   -0.967585 C.2        1 UNL1     0.2504
     34 C         3.93218   10.874532   -1.497603 C.3        1 UNL1     -0.0327
     35 O         1.879091   6.765442   0.783189 O.2        1 UNL1     -0.4528
     36 C         -1.140111   4.491981   0.431219 C.3        1 UNL1     0.0854
     37 C         -1.283053   3.142879   -0.373152 C.3        1 UNL1     0.0236
     38 C         -1.789685   1.890908   0.491509 C.3        1 UNL1     0.1131
     39 C         -1.070292   1.535634   1.854786 C.3        1 UNL1     0.0200
     40 C         0.594011   1.561693   1.963673 C.3        1 UNL1     0.0661
     41 C         1.671788   0.807311   0.892733 C.3        1 UNL1     0.0091
     42 C         3.357726   1.296376   0.359973 C.3        1 UNL1     0.0661
     43 C         6.909964   7.814898   -4.21385 C.2        1 UNL1     0.2131
     44 O         7.249667   8.691818   -4.987381 O.2        1 UNL1     -0.2851
     45 O         6.273911   10.361745   -3.226992 O.3        1 UNL1     -0.5056
     46 O         3.50476   5.029753   -0.741285 O.2        1 UNL1     -0.2836
     47 C         5.345363   1.967831   2.008081 C.3        1 UNL1     -0.0566
     48 O         3.938341   -0.052134   0.568598 O.3        1 UNL1     -0.3909
     49 C         0.916688   0.398851   -0.352449 C.3        1 UNL1     -0.0577
     50 O         1.05536   2.86   2.278757 O.3        1 UNL1     -0.3910
     51 O         -1.302868   4.396454   1.828293 O.3        1 UNL1     -0.3753
     52 C         -0.180846   3.001807   -1.473237 C.3        1 UNL1     -0.0564
     53 O         -2.249813   0.731501   -0.342987 O.3        1 UNL1     -0.4608
     54 C         -3.084149   -0.270356   0.079027 C.2        1 UNL1     0.3042
     55 O         -4.229166   -0.155033   0.514315 O.2        1 UNL1     -0.2512
     56 C         -2.502278   -1.64581   -0.083045 C.3        1 UNL1     0.0332
     57 C         -1.905158   2.221977   3.033813 C.3        1 UNL1     -0.0567
     58 C         1.20183   7.188463   -1.686572 C.3        1 UNL1     0.0210
     59 C         -1.708222   5.605421   2.468569 C.3        1 UNL1     0.0372
     60 C         0.129437   5.2325   0.196615 C.2        1 UNL1     -0.0208
     61 C         0.958452   5.821924   1.059204 C.2        1 UNL1     0.0882
     62 H         4.396014   3.180288   0.520466 H        1 UNL1     0.0365
     63 H         5.982061   4.152016   -0.322402 H        1 UNL1     0.0576
     64 H         8.224985   2.177137   -1.07468 H        1 UNL1     0.0615
     65 H         7.861043   5.248751   -1.51125 H        1 UNL1     0.0622
     66 H         -1.940635   5.134117   0.037685 H        1 UNL1     0.0645
     67 H         -2.148509   3.316403   -1.036052 H        1 UNL1     0.0362
     68 H         -2.788754   2.255491   0.77517 H        1 UNL1     0.0741
     69 H         -1.309194   0.513957   2.118432 H        1 UNL1     0.0359
     70 H         0.73305   0.984468   2.897772 H        1 UNL1     0.0600
     71 H         1.797214   -0.169073   1.400572 H        1 UNL1     0.0348
     72 H         3.163927   1.844062   1.293674 H        1 UNL1     0.0602
     73 H         0.270518   5.361723   -0.847725 H        1 UNL1     0.0628
     74 H         0.917079   5.692016   2.14117 H        1 UNL1     0.1022
     75 H         11.359295   4.939358   -3.81375 H        1 UNL1     0.0279
     76 H         11.375979   3.4844   -2.899354 H        1 UNL1     0.0279
     77 H         10.409375   3.647003   -4.420714 H        1 UNL1     0.0279
     78 H         8.776817   5.253269   -5.074126 H        1 UNL1     0.1553
     79 H         7.634643   3.691169   -4.64809 H        1 UNL1     0.1484
     80 H         3.971351   2.70486   -4.864844 H        1 UNL1     0.0317
     81 H         4.571831   4.259236   -5.424544 H        1 UNL1     0.0317
     82 H         6.635513   3.188247   -6.366828 H        1 UNL1     0.0428
     83 H         5.161865   2.510517   -7.02314 H        1 UNL1     0.0428
     84 H         7.070953   0.28764   -3.938122 H        1 UNL1     0.0428
     85 H         7.854782   1.747821   -4.430672 H        1 UNL1     0.0428
     86 H         6.473844   1.850346   -2.355257 H        1 UNL1     0.0317
     87 H         5.04126   1.415036   -3.168005 H        1 UNL1     0.0317
     88 H         7.153555   -0.451266   -6.1405 H        1 UNL1     0.0429
     89 H         5.932931   0.049005   -7.313548 H        1 UNL1     0.0429
     90 H         8.781612   0.93961   -6.946566 H        1 UNL1     0.0308
     91 H         6.844914   0.725977   -9.313044 H        1 UNL1     0.0233
     92 H         8.477567   1.425143   -9.458321 H        1 UNL1     0.0233
     93 H         8.274152   -0.256228   -9.015358 H        1 UNL1     0.0233
     94 H         8.130039   3.193291   -8.071444 H        1 UNL1     0.0233
     95 H         6.562225   2.920045   -7.295799 H        1 UNL1     0.0233
     96 H         8.036015   3.02958   -6.305882 H        1 UNL1     0.0233
     97 H         4.553781   11.445957   -0.814731 H        1 UNL1     0.0280
     98 H         3.819014   11.497935   -2.394162 H        1 UNL1     0.0280
     99 H         2.942122   10.73883   -1.032343 H        1 UNL1     0.0280
     100 H         6.143741   10.520334   -4.145429 H        1 UNL1     0.2922
     101 H         5.904993   1.035214   2.076605 H        1 UNL1     0.0236
     102 H         4.486349   1.979511   2.678113 H        1 UNL1     0.0236
     103 H         6.027683   2.73401   2.412559 H        1 UNL1     0.0236
     104 H         3.197608   -0.687455   0.620088 H        1 UNL1     0.2098
     105 H         0.685092   1.219542   -1.02672 H        1 UNL1     0.0234
     106 H         1.361977   -0.429052   -0.90401 H        1 UNL1     0.0234
     107 H         0.0   -0.0   0.0 H        1 UNL1     0.0234
     108 H         2.022778   2.802732   2.399554 H        1 UNL1     0.2098
     109 H         0.808015   3.319901   -1.114516 H        1 UNL1     0.0234
     110 H         -0.112519   1.989841   -1.88676 H        1 UNL1     0.0234
     111 H         -0.397245   3.63202   -2.346135 H        1 UNL1     0.0234
     112 H         -2.74606   -2.258309   0.790316 H        1 UNL1     0.0342
     113 H         -2.835328   -2.125701   -1.00208 H        1 UNL1     0.0342
     114 H         -1.408768   -1.551938   -0.133926 H        1 UNL1     0.0342
     115 H         -1.321258   2.289307   3.9621 H        1 UNL1     0.0234
     116 H         -2.263608   3.225904   2.79782 H        1 UNL1     0.0234
     117 H         -2.768813   1.62188   3.368366 H        1 UNL1     0.0234
     118 H         0.192564   7.428558   -1.30876 H        1 UNL1     0.0309
     119 H         1.464342   7.894626   -2.48069 H        1 UNL1     0.0309
     120 H         1.063887   6.2185   -2.176725 H        1 UNL1     0.0309
     121 H         -2.723172   5.828016   2.140415 H        1 UNL1     0.0524
     122 H         -1.727725   5.510868   3.567075 H        1 UNL1     0.0524
     123 H         -1.039739   6.417292   2.196377 H        1 UNL1     0.0524
@<TRIPOS>BOND
     1     1     2    1
     2     1    42    1
     3     2     3    2
     4     3     4    1
     5     4     5    2
     6     5     7    1
     7     6    75    1
     8     6    76    1
     9     6    77    1
    10     7     9   am
    11     9    10    1
    12    10    11    2
    13    10    43    1
    14    11    14    1
    15    11    15    1
    16    12    13   ar
    17    12    27   ar
    18    12    43    1
    19    13    14    1
    20    13    30   ar
    21    14    17    2
    22    15    16    1
    23    16    17    1
    24    16    18    1
    25    16    22    1
    26    18    19    1
    27    19    20    1
    28    20    21    1
    29    21    22    1
    30    23    24    1
    31    23    88    1
    32    23    89    1
    33    24    25    1
    34    24    26    1
    35    24    90    1
    36    25    91    1
    37    25    92    1
    38    25    93    1
    39    26    94    1
    40    26    95    1
    41    26    96    1
    42    27    28   ar
    43    28    29   ar
    44    29    30   ar
    45    29    31    1
    46    30    33    1
    47    31    32    1
    48    32    33    1
    49    32    35    1
    50    34    97    1
    51    34    98    1
    52    34    99    1
    53    35    61    1
    54    36    37    1
    55    36    60    1
    56    37    38    1
    57    38    39    1
    58    39    40    1
    59    40    41    1
    60    41    42    1
    61    45   100    1
    62    47   101    1
    63    47   102    1
    64    47   103    1
    65    48   104    1
    66    49   105    1
    67    49   106    1
    68    49   107    1
    69    50   108    1
    70    51    59    1
    71    52   109    1
    72    52   110    1
    73    52   111    1
    74    53    54    1
    75    54    55    2
    76    54    56    1
    77    56   112    1
    78    56   113    1
    79    56   114    1
    80    57   115    1
    81    57   116    1
    82    57   117    1
    83    58   118    1
    84    58   119    1
    85    58   120    1
    86    59   121    1
    87    59   122    1
    88    59   123    1
    89    60    61    2
    90     1    47    1
    91     1    62    1
    92     2    63    1
    93     3    64    1
    94     4    65    1
    95     5     6    1
    96     7     8    2
    97     9    78    1
    98    15    79    1
    99    18    80    1
   100    18    81    1
   101    19    82    1
   102    19    83    1
   103    20    23    1
   104    21    84    1
   105    21    85    1
   106    22    86    1
   107    22    87    1
   108    27    45    1
   109    28    34    1
   110    32    58    1
   111    33    46    2
   112    36    51    1
   113    36    66    1
   114    37    52    1
   115    37    67    1
   116    38    53    1
   117    38    68    1
   118    42    48    1
   119    42    72    1
   120    43    44    2
   121    60    73    1
   122    61    74    1
   123    39    69    1
   124    39    57    1
   125    40    70    1
   126    40    50    1
   127    41    71    1
   128    41    49    1
