@<TRIPOS>MOLECULE
*****
 123 128 0 0 0
SMALL
GASTEIGER

@<TRIPOS>ATOM
     1 C         4.3325   2.378466   -2.360426 C.3        1 UNL1     0.0009
     2 C         5.843709   2.12765   -3.404637 C.2        1 UNL1     -0.0787
     3 C         7.278536   1.973559   -3.521149 C.2        1 UNL1     -0.0649
     4 C         8.177257   1.615839   -4.910643 C.2        1 UNL1     -0.0542
     5 C         9.411087   1.120288   -5.399694 C.2        1 UNL1     0.0115
     6 C         10.853047   0.713161   -4.989424 C.3        1 UNL1     -0.0348
     7 C         9.498875   0.621151   -6.922896 C.2        1 UNL1     0.2441
     8 O         10.002941   1.290246   -7.814387 O.2        1 UNL1     -0.2702
     9 N         9.196011   -0.737986   -7.115696 N.am        1 UNL1     -0.2772
     10 C         7.844192   -0.905874   -7.309915 C.2        1 UNL1     0.1049
     11 C         7.102072   -0.962746   -6.218932 C.2        1 UNL1     0.0801
     12 C         5.906312   -0.033139   -8.629115 C.ar        1 UNL1     0.0753
     13 C         5.211387   0.083194   -7.38326 C.ar        1 UNL1     0.0305
     14 C         5.741649   -0.501892   -6.15381 C.2        1 UNL1     0.0924
     15 N         7.466836   -1.093566   -4.931935 N.pl3        1 UNL1     -0.3170
     16 C         6.271168   -1.276744   -4.152784 C.3        1 UNL1     0.1275
     17 N         5.193447   -0.577001   -4.944364 N.2        1 UNL1     -0.2557
     18 C         5.928645   -2.76294   -4.19282 C.3        1 UNL1     0.0016
     19 C         7.12914   -3.552266   -3.695461 C.3        1 UNL1     0.0026
     20 N         7.441975   -3.123016   -2.339397 N.3        1 UNL1     -0.3018
     21 C         7.725542   -1.694222   -2.189375 C.3        1 UNL1     0.0026
     22 C         6.504827   -0.920557   -2.690565 C.3        1 UNL1     0.0016
     23 C         8.369341   -4.010756   -1.666677 C.3        1 UNL1     0.0012
     24 C         7.692153   -5.351588   -1.342114 C.3        1 UNL1     -0.0339
     25 C         8.056322   -6.43022   -2.37555 C.3        1 UNL1     -0.0615
     26 C         8.047865   -5.786576   0.068926 C.3        1 UNL1     -0.0615
     27 C         5.338603   0.4207   -9.81733 C.ar        1 UNL1     0.1347
     28 C         4.070957   0.970024   -9.890598 C.ar        1 UNL1     0.0342
     29 C         3.425371   1.119248   -8.644759 C.ar        1 UNL1     0.1435
     30 C         3.996572   0.702317   -7.441797 C.ar        1 UNL1     0.0774
     31 O         2.143173   1.536315   -8.560918 O.3        1 UNL1     -0.4436
     32 C         1.709251   1.115243   -7.258888 C.3        1 UNL1     0.3143
     33 C         2.979702   0.969021   -6.446001 C.2        1 UNL1     0.2504
     34 C         3.300949   1.245449   -11.152077 C.3        1 UNL1     -0.0327
     35 O         0.969319   2.199891   -6.685048 O.2        1 UNL1     -0.4528
     36 C         -1.595942   0.607611   -4.384577 C.3        1 UNL1     0.0854
     37 C         -1.371412   -0.365112   -3.163546 C.3        1 UNL1     0.0236
     38 C         -2.022598   0.123213   -1.781793 C.3        1 UNL1     0.1131
     39 C         -1.741634   1.588422   -1.255969 C.3        1 UNL1     0.0200
     40 C         -0.203252   2.229734   -1.323317 C.3        1 UNL1     0.0661
     41 C         1.212609   1.475829   -0.771433 C.3        1 UNL1     0.0091
     42 C         2.936049   1.581231   -1.391147 C.3        1 UNL1     0.0661
     43 C         7.214219   -0.734307   -8.627509 C.2        1 UNL1     0.2131
     44 O         7.708689   -1.238731   -9.619372 O.2        1 UNL1     -0.2851
     45 O         6.100134   0.311603   -10.979055 O.3        1 UNL1     -0.5056
     46 O         3.123949   1.07173   -5.248296 O.2        1 UNL1     -0.2836
     47 C         4.245872   3.852951   -1.882542 C.3        1 UNL1     -0.0566
     48 O         3.527134   1.791851   -0.047505 O.3        1 UNL1     -0.3909
     49 C         0.921527   0.01248   -0.523692 C.3        1 UNL1     -0.0577
     50 O         0.031093   2.839482   -2.576717 O.3        1 UNL1     -0.3910
     51 O         -2.180865   1.853645   -4.080118 O.3        1 UNL1     -0.3753
     52 C         0.027938   -1.060253   -3.223111 C.3        1 UNL1     -0.0564
     53 O         -2.103794   -0.955693   -0.741748 O.3        1 UNL1     -0.4608
     54 C         -2.250134   -0.751999   0.60548 C.2        1 UNL1     0.3042
     55 O         -1.422179   -0.972598   1.488467 O.2        1 UNL1     -0.2512
     56 C         -3.568516   -0.137601   0.981108 C.3        1 UNL1     0.0332
     57 C         -2.956188   2.513254   -1.733168 C.3        1 UNL1     -0.0567
     58 C         1.070147   -0.281125   -7.441185 C.3        1 UNL1     0.0210
     59 C         -2.907439   2.452652   -5.1521 C.3        1 UNL1     0.0372
     60 C         -0.380042   0.890738   -5.194877 C.2        1 UNL1     -0.0208
     61 C         0.086674   2.042052   -5.680055 C.2        1 UNL1     0.0882
     62 H         3.718205   2.306412   -3.266053 H        1 UNL1     0.0365
     63 H         5.406095   2.150309   -4.404862 H        1 UNL1     0.0576
     64 H         7.921358   1.914778   -2.639995 H        1 UNL1     0.0615
     65 H         7.469797   1.779897   -5.727998 H        1 UNL1     0.0622
     66 H         -2.280873   0.06261   -5.049326 H        1 UNL1     0.0645
     67 H         -1.995959   -1.243496   -3.402172 H        1 UNL1     0.0362
     68 H         -3.085871   0.114171   -2.066206 H        1 UNL1     0.0741
     69 H         -1.969175   1.6285   -0.199074 H        1 UNL1     0.0359
     70 H         -0.319008   3.077158   -0.620797 H        1 UNL1     0.0600
     71 H         1.249515   1.868066   0.263818 H        1 UNL1     0.0348
     72 H         2.416057   2.464627   -1.789311 H        1 UNL1     0.0602
     73 H         0.070972   -0.02707   -5.480296 H        1 UNL1     0.0628
     74 H         -0.28176   3.027172   -5.391901 H        1 UNL1     0.1022
     75 H         10.992344   0.821846   -3.886783 H        1 UNL1     0.0279
     76 H         11.13111   -0.324538   -5.159515 H        1 UNL1     0.0279
     77 H         11.616102   1.405844   -5.37366 H        1 UNL1     0.0279
     78 H         9.454232   -1.267087   -6.285364 H        1 UNL1     0.1553
     79 H         8.364089   -1.434426   -4.639214 H        1 UNL1     0.1484
     80 H         5.044639   -2.943025   -3.569227 H        1 UNL1     0.0317
     81 H         5.664843   -3.076466   -5.208576 H        1 UNL1     0.0317
     82 H         7.998283   -3.432645   -4.358931 H        1 UNL1     0.0428
     83 H         6.863938   -4.609259   -3.733995 H        1 UNL1     0.0428
     84 H         7.878574   -1.384068   -1.151012 H        1 UNL1     0.0428
     85 H         8.658663   -1.407501   -2.693749 H        1 UNL1     0.0428
     86 H         6.692515   0.107958   -2.443751 H        1 UNL1     0.0317
     87 H         5.626848   -1.171264   -2.082785 H        1 UNL1     0.0317
     88 H         9.212852   -4.200013   -2.343409 H        1 UNL1     0.0429
     89 H         8.781136   -3.545811   -0.761677 H        1 UNL1     0.0429
     90 H         6.60422   -5.21529   -1.348234 H        1 UNL1     0.0308
     91 H         9.139438   -6.572048   -2.437585 H        1 UNL1     0.0233
     92 H         7.583829   -7.382363   -2.122994 H        1 UNL1     0.0233
     93 H         7.710534   -6.175426   -3.384681 H        1 UNL1     0.0233
     94 H         7.73013   -6.821359   0.236574 H        1 UNL1     0.0233
     95 H         9.130923   -5.738982   0.21274 H        1 UNL1     0.0233
     96 H         7.564289   -5.151221   0.816218 H        1 UNL1     0.0233
     97 H         2.308361   1.635093   -10.946708 H        1 UNL1     0.0280
     98 H         3.794304   1.996862   -11.782344 H        1 UNL1     0.0280
     99 H         3.193372   0.312862   -11.729835 H        1 UNL1     0.0280
     100 H         5.674549   -0.142456   -11.684979 H        1 UNL1     0.2922
     101 H         3.326795   4.002544   -1.316348 H        1 UNL1     0.0236
     102 H         4.348405   4.573138   -2.69359 H        1 UNL1     0.0236
     103 H         5.054009   4.107683   -1.176695 H        1 UNL1     0.0236
     104 H         3.614057   2.755624   0.088714 H        1 UNL1     0.2098
     105 H         0.799067   -0.580222   -1.426753 H        1 UNL1     0.0234
     106 H         1.61256   -0.479799   0.160459 H        1 UNL1     0.0234
     107 H         0.0   0.0   0.0 H        1 UNL1     0.0234
     108 H         0.017526   2.132488   -3.250321 H        1 UNL1     0.2098
     109 H         0.853095   -0.334441   -3.227993 H        1 UNL1     0.0234
     110 H         0.182802   -1.785683   -2.417188 H        1 UNL1     0.0234
     111 H         0.147164   -1.652014   -4.140472 H        1 UNL1     0.0234
     112 H         -3.612111   0.017063   2.063477 H        1 UNL1     0.0342
     113 H         -3.754344   0.792297   0.445756 H        1 UNL1     0.0342
     114 H         -4.365695   -0.843166   0.709354 H        1 UNL1     0.0342
     115 H         -3.919774   2.153419   -1.346893 H        1 UNL1     0.0234
     116 H         -2.856835   3.561141   -1.443148 H        1 UNL1     0.0234
     117 H         -3.135796   2.476645   -2.821443 H        1 UNL1     0.0234
     118 H         0.019794   -0.215953   -7.775127 H        1 UNL1     0.0309
     119 H         1.626791   -0.921404   -8.132845 H        1 UNL1     0.0309
     120 H         1.001957   -0.838267   -6.500415 H        1 UNL1     0.0309
     121 H         -2.197475   2.673675   -5.948628 H        1 UNL1     0.0524
     122 H         -3.672959   1.776541   -5.5679 H        1 UNL1     0.0524
     123 H         -3.389283   3.366162   -4.815322 H        1 UNL1     0.0524
@<TRIPOS>BOND
     1     1     2    1
     2     1    42    1
     3     2     3    2
     4     3     4    1
     5     4     5    2
     6     5     7    1
     7     6    75    1
     8     6    76    1
     9     6    77    1
    10     7     9   am
    11     9    10    1
    12    10    11    2
    13    10    43    1
    14    11    14    1
    15    11    15    1
    16    12    13   ar
    17    12    27   ar
    18    12    43    1
    19    13    14    1
    20    13    30   ar
    21    14    17    2
    22    15    16    1
    23    16    17    1
    24    16    18    1
    25    16    22    1
    26    18    19    1
    27    19    20    1
    28    20    21    1
    29    21    22    1
    30    23    24    1
    31    23    88    1
    32    23    89    1
    33    24    25    1
    34    24    26    1
    35    24    90    1
    36    25    91    1
    37    25    92    1
    38    25    93    1
    39    26    94    1
    40    26    95    1
    41    26    96    1
    42    27    28   ar
    43    28    29   ar
    44    29    30   ar
    45    29    31    1
    46    30    33    1
    47    31    32    1
    48    32    33    1
    49    32    35    1
    50    34    97    1
    51    34    98    1
    52    34    99    1
    53    35    61    1
    54    36    37    1
    55    36    60    1
    56    37    38    1
    57    38    39    1
    58    39    40    1
    59    40    41    1
    60    41    42    1
    61    45   100    1
    62    47   101    1
    63    47   102    1
    64    47   103    1
    65    48   104    1
    66    49   105    1
    67    49   106    1
    68    49   107    1
    69    50   108    1
    70    51    59    1
    71    52   109    1
    72    52   110    1
    73    52   111    1
    74    53    54    1
    75    54    55    2
    76    54    56    1
    77    56   112    1
    78    56   113    1
    79    56   114    1
    80    57   115    1
    81    57   116    1
    82    57   117    1
    83    58   118    1
    84    58   119    1
    85    58   120    1
    86    59   121    1
    87    59   122    1
    88    59   123    1
    89    60    61    2
    90     1    47    1
    91     1    62    1
    92     2    63    1
    93     3    64    1
    94     4    65    1
    95     5     6    1
    96     7     8    2
    97     9    78    1
    98    15    79    1
    99    18    80    1
   100    18    81    1
   101    19    82    1
   102    19    83    1
   103    20    23    1
   104    21    84    1
   105    21    85    1
   106    22    86    1
   107    22    87    1
   108    27    45    1
   109    28    34    1
   110    32    58    1
   111    33    46    2
   112    36    51    1
   113    36    66    1
   114    37    52    1
   115    37    67    1
   116    38    53    1
   117    38    68    1
   118    42    48    1
   119    42    72    1
   120    43    44    2
   121    60    73    1
   122    61    74    1
   123    39    69    1
   124    39    57    1
   125    40    70    1
   126    40    50    1
   127    41    71    1
   128    41    49    1
