@<TRIPOS>MOLECULE
*****
 123 128 0 0 0
SMALL
GASTEIGER

@<TRIPOS>ATOM
     1 C         -3.958449   3.320368   -1.097541 C.3        1 UNL1     0.0009
     2 C         -5.543975   4.050374   -0.472854 C.2        1 UNL1     -0.0787
     3 C         -6.982719   3.987984   -0.323957 C.2        1 UNL1     -0.0649
     4 C         -7.983498   5.028936   0.559909 C.2        1 UNL1     -0.0542
     5 C         -9.24868   5.173793   1.180722 C.2        1 UNL1     0.0115
     6 C         -10.652884   4.528028   1.337311 C.3        1 UNL1     -0.0348
     7 C         -9.45046   6.334094   2.271583 C.2        1 UNL1     0.2441
     8 O         -10.024735   7.385915   2.025808 O.2        1 UNL1     -0.2702
     9 N         -9.156441   5.957209   3.593575 N.am        1 UNL1     -0.2772
     10 C         -7.822661   6.158842   3.865045 C.2        1 UNL1     0.1049
     11 C         -6.998819   5.201778   3.478346 C.2        1 UNL1     0.0801
     12 C         -5.996014   7.858049   3.682309 C.ar        1 UNL1     0.0753
     13 C         -5.208227   6.830605   3.072095 C.ar        1 UNL1     0.0305
     14 C         -5.63974   5.434595   3.07082 C.2        1 UNL1     0.0924
     15 N         -7.263195   3.95707   3.045525 N.pl3        1 UNL1     -0.3170
     16 C         -6.010414   3.261149   2.917117 C.3        1 UNL1     0.1275
     17 N         -5.000071   4.348865   2.645449 N.2        1 UNL1     -0.2557
     18 C         -5.664504   2.695452   4.291175 C.3        1 UNL1     0.0016
     19 C         -6.819361   1.827158   4.764422 C.3        1 UNL1     0.0026
     20 N         -7.02948   0.759799   3.796113 N.3        1 UNL1     -0.3018
     21 C         -7.307889   1.206097   2.429483 C.3        1 UNL1     0.0026
     22 C         -6.133087   2.072701   1.972611 C.3        1 UNL1     0.0016
     23 C         -7.898079   -0.288938   4.292428 C.3        1 UNL1     0.0012
     24 C         -9.3582   0.189582   4.321101 C.3        1 UNL1     -0.0339
     25 C         -10.336183   -0.993683   4.40766 C.3        1 UNL1     -0.0615
     26 C         -9.562972   1.168798   5.463898 C.3        1 UNL1     -0.0615
     27 C         -5.523344   9.164145   3.786297 C.ar        1 UNL1     0.1347
     28 C         -4.267821   9.552712   3.354176 C.ar        1 UNL1     0.0342
     29 C         -3.529394   8.535612   2.712774 C.ar        1 UNL1     0.1435
     30 C         -4.0046   7.231491   2.569016 C.ar        1 UNL1     0.0774
     31 O         -2.246653   8.727449   2.334908 O.3        1 UNL1     -0.4436
     32 C         -1.712092   7.404016   2.181147 C.3        1 UNL1     0.3143
     33 C         -2.915743   6.51654   1.93656 C.2        1 UNL1     0.2504
     34 C         -3.59817   10.864327   3.656387 C.3        1 UNL1     -0.0327
     35 O         -0.935809   7.395436   0.976753 O.2        1 UNL1     -0.4528
     36 C         1.806214   4.828414   1.524292 C.3        1 UNL1     0.0854
     37 C         1.680832   3.298525   1.886563 C.3        1 UNL1     0.0236
     38 C         2.433557   2.301891   0.880646 C.3        1 UNL1     0.1131
     39 C         2.186367   2.424   -0.676999 C.3        1 UNL1     0.0200
     40 C         0.644146   2.645005   -1.272941 C.3        1 UNL1     0.0661
     41 C         -0.721439   1.726926   -0.860728 C.3        1 UNL1     0.0091
     42 C         -2.48782   2.208132   -0.743506 C.3        1 UNL1     0.0661
     43 C         -7.29641   7.46738   4.281148 C.2        1 UNL1     0.2131
     44 O         -7.862915   8.115994   5.142025 O.2        1 UNL1     -0.2851
     45 O         -6.371129   10.113814   4.352714 O.3        1 UNL1     -0.5056
     46 O         -2.96827   5.466777   1.335651 O.2        1 UNL1     -0.2836
     47 C         -3.842854   3.516053   -2.633225 C.3        1 UNL1     -0.0566
     48 O         -2.97522   1.039921   -1.51606 O.3        1 UNL1     -0.3909
     49 C         -0.404873   0.907024   0.370142 C.3        1 UNL1     -0.0577
     50 O         0.311351   4.018297   -1.305187 O.3        1 UNL1     -0.3910
     51 O         2.406484   5.120275   0.28255 O.3        1 UNL1     -0.3753
     52 C         0.284544   2.959146   2.503127 C.3        1 UNL1     -0.0564
     53 O         2.599658   0.912754   1.423819 O.3        1 UNL1     -0.4608
     54 C         3.351512   0.571263   2.51745 C.2        1 UNL1     0.3042
     55 O         3.387263   -0.517917   3.088632 O.2        1 UNL1     -0.2512
     56 C         4.254399   1.673107   2.994364 C.3        1 UNL1     0.0332
     57 C         3.356106   3.33219   -1.281214 C.3        1 UNL1     -0.0567
     58 C         -1.081834   7.026027   3.541819 C.3        1 UNL1     0.0210
     59 C         3.305281   4.121793   -0.198141 C.3        1 UNL1     0.0372
     60 C         0.530371   5.593172   1.574605 C.2        1 UNL1     -0.0208
     61 C         0.022058   6.483615   0.721684 C.2        1 UNL1     0.0882
     62 H         -3.415027   4.152681   -0.634229 H        1 UNL1     0.0365
     63 H         -5.18444   4.995471   -0.060547 H        1 UNL1     0.0576
     64 H         -7.555802   3.120605   -0.659123 H        1 UNL1     0.0615
     65 H         -7.341606   5.887644   0.774569 H        1 UNL1     0.0622
     66 H         2.440903   5.248689   2.317125 H        1 UNL1     0.0645
     67 H         2.289655   3.188742   2.800807 H        1 UNL1     0.0362
     68 H         3.471932   2.631345   1.037996 H        1 UNL1     0.0741
     69 H         2.49405   1.501759   -1.151564 H        1 UNL1     0.0359
     70 H         0.809153   2.375404   -2.333671 H        1 UNL1     0.0600
     71 H         -0.68085   0.953743   -1.652876 H        1 UNL1     0.0348
     72 H         -2.004323   2.977662   -1.362675 H        1 UNL1     0.0602
     73 H         0.063422   5.432035   2.514415 H        1 UNL1     0.0628
     74 H         0.406542   6.664736   -0.282609 H        1 UNL1     0.1022
     75 H         -11.270733   4.707131   0.424502 H        1 UNL1     0.0279
     76 H         -10.681011   3.444692   1.430372 H        1 UNL1     0.0279
     77 H         -11.262238   5.017635   2.111051 H        1 UNL1     0.0279
     78 H         -9.347592   4.965082   3.716957 H        1 UNL1     0.1553
     79 H         -8.133645   3.484514   3.206589 H        1 UNL1     0.1484
     80 H         -4.734404   2.119137   4.216737 H        1 UNL1     0.0317
     81 H         -5.477768   3.500438   5.010047 H        1 UNL1     0.0317
     82 H         -7.737395   2.415102   4.910876 H        1 UNL1     0.0428
     83 H         -6.552586   1.435472   5.746493 H        1 UNL1     0.0428
     84 H         -7.382433   0.387187   1.707237 H        1 UNL1     0.0428
     85 H         -8.278356   1.716067   2.355714 H        1 UNL1     0.0428
     86 H         -6.30647   2.269651   0.930912 H        1 UNL1     0.0317
     87 H         -5.209854   1.480482   1.968698 H        1 UNL1     0.0317
     88 H         -7.824296   -1.145287   3.609407 H        1 UNL1     0.0429
     89 H         -7.576328   -0.638191   5.28201 H        1 UNL1     0.0429
     90 H         -9.570149   0.751378   3.403672 H        1 UNL1     0.0308
     91 H         -10.971801   -0.920224   5.295182 H        1 UNL1     0.0233
     92 H         -10.9675   -1.038989   3.517158 H        1 UNL1     0.0233
     93 H         -9.819356   -1.959278   4.465543 H        1 UNL1     0.0233
     94 H         -8.916432   0.904933   6.307816 H        1 UNL1     0.0233
     95 H         -9.300044   2.180046   5.141086 H        1 UNL1     0.0233
     96 H         -10.600461   1.167202   5.809704 H        1 UNL1     0.0233
     97 H         -3.809517   11.613671   2.899388 H        1 UNL1     0.0280
     98 H         -3.939114   11.293562   4.607581 H        1 UNL1     0.0280
     99 H         -2.506484   10.719093   3.703542 H        1 UNL1     0.0280
     100 H         -6.039195   10.517935   5.135101 H        1 UNL1     0.2922
     101 H         -3.118742   2.810627   -3.040278 H        1 UNL1     0.0236
     102 H         -3.618255   4.543191   -2.918751 H        1 UNL1     0.0236
     103 H         -4.786371   3.27981   -3.152993 H        1 UNL1     0.0236
     104 H         -3.647105   1.363477   -2.147607 H        1 UNL1     0.2098
     105 H         0.332724   1.355425   1.030973 H        1 UNL1     0.0234
     106 H         -1.276707   0.585669   0.939848 H        1 UNL1     0.0234
     107 H         0.0   -0.0   0.0 H        1 UNL1     0.0234
     108 H         0.010305   4.222635   -2.21149 H        1 UNL1     0.2098
     109 H         -0.53136   3.508014   2.012456 H        1 UNL1     0.0234
     110 H         0.060479   1.886998   2.497056 H        1 UNL1     0.0234
     111 H         0.232748   3.235916   3.56457 H        1 UNL1     0.0234
     112 H         5.145574   1.246637   3.464765 H        1 UNL1     0.0342
     113 H         4.525702   2.356738   2.191316 H        1 UNL1     0.0342
     114 H         3.715619   2.252352   3.756832 H        1 UNL1     0.0342
     115 H         4.011461   2.760577   -1.952747 H        1 UNL1     0.0234
     116 H         3.000684   4.20448   -1.833333 H        1 UNL1     0.0234
     117 H         4.078934   3.68015   -0.523333 H        1 UNL1     0.0234
     118 H         -1.838503   6.949189   4.342166 H        1 UNL1     0.0309
     119 H         -0.504359   6.09687   3.504507 H        1 UNL1     0.0309
     120 H         -0.396171   7.794398   3.915421 H        1 UNL1     0.0309
     121 H         3.269066   3.283421   0.496969 H        1 UNL1     0.0524
     122 H         3.01571   3.741745   -1.191997 H        1 UNL1     0.0524
     123 H         4.314589   4.519742   -0.25318 H        1 UNL1     0.0524
@<TRIPOS>BOND
     1     1     2    1
     2     1    42    1
     3     2     3    2
     4     3     4    1
     5     4     5    2
     6     5     7    1
     7     6    75    1
     8     6    76    1
     9     6    77    1
    10     7     9   am
    11     9    10    1
    12    10    11    2
    13    10    43    1
    14    11    14    1
    15    11    15    1
    16    12    13   ar
    17    12    27   ar
    18    12    43    1
    19    13    14    1
    20    13    30   ar
    21    14    17    2
    22    15    16    1
    23    16    17    1
    24    16    18    1
    25    16    22    1
    26    18    19    1
    27    19    20    1
    28    20    21    1
    29    21    22    1
    30    23    24    1
    31    23    88    1
    32    23    89    1
    33    24    25    1
    34    24    26    1
    35    24    90    1
    36    25    91    1
    37    25    92    1
    38    25    93    1
    39    26    94    1
    40    26    95    1
    41    26    96    1
    42    27    28   ar
    43    28    29   ar
    44    29    30   ar
    45    29    31    1
    46    30    33    1
    47    31    32    1
    48    32    33    1
    49    32    35    1
    50    34    97    1
    51    34    98    1
    52    34    99    1
    53    35    61    1
    54    36    37    1
    55    36    60    1
    56    37    38    1
    57    38    39    1
    58    39    40    1
    59    40    41    1
    60    41    42    1
    61    45   100    1
    62    47   101    1
    63    47   102    1
    64    47   103    1
    65    48   104    1
    66    49   105    1
    67    49   106    1
    68    49   107    1
    69    50   108    1
    70    51    59    1
    71    52   109    1
    72    52   110    1
    73    52   111    1
    74    53    54    1
    75    54    55    2
    76    54    56    1
    77    56   112    1
    78    56   113    1
    79    56   114    1
    80    57   115    1
    81    57   116    1
    82    57   117    1
    83    58   118    1
    84    58   119    1
    85    58   120    1
    86    59   121    1
    87    59   122    1
    88    59   123    1
    89    60    61    2
    90     1    47    1
    91     1    62    1
    92     2    63    1
    93     3    64    1
    94     4    65    1
    95     5     6    1
    96     7     8    2
    97     9    78    1
    98    15    79    1
    99    18    80    1
   100    18    81    1
   101    19    82    1
   102    19    83    1
   103    20    23    1
   104    21    84    1
   105    21    85    1
   106    22    86    1
   107    22    87    1
   108    27    45    1
   109    28    34    1
   110    32    58    1
   111    33    46    2
   112    36    51    1
   113    36    66    1
   114    37    52    1
   115    37    67    1
   116    38    53    1
   117    38    68    1
   118    42    48    1
   119    42    72    1
   120    43    44    2
   121    60    73    1
   122    61    74    1
   123    39    69    1
   124    39    57    1
   125    40    70    1
   126    40    50    1
   127    41    71    1
   128    41    49    1
