@<TRIPOS>MOLECULE
*****
 123 128 0 0 0
SMALL
GASTEIGER

@<TRIPOS>ATOM
     1 C         1.352055   4.717266   2.251797 C.3        1 UNL1     0.0009
     2 C         2.565814   5.517219   3.402406 C.2        1 UNL1     -0.0787
     3 C         2.866441   6.148861   4.669962 C.2        1 UNL1     -0.0649
     4 C         4.379244   6.625171   5.262343 C.2        1 UNL1     -0.0542
     5 C         5.119794   6.955035   6.424174 C.2        1 UNL1     0.0115
     6 C         5.00473   7.261483   7.942783 C.3        1 UNL1     -0.0348
     7 C         6.723467   6.929897   6.356418 C.2        1 UNL1     0.2441
     8 O         7.40145   7.943738   6.261599 O.2        1 UNL1     -0.2702
     9 N         7.307098   5.691406   6.675271 N.am        1 UNL1     -0.2772
     10 C         7.409986   4.9053   5.55065 C.2        1 UNL1     0.1049
     11 C         6.325868   4.232554   5.20959 C.2        1 UNL1     0.0801
     12 C         8.18529   4.936908   3.172576 C.ar        1 UNL1     0.0753
     13 C         6.904766   4.396959   2.830055 C.ar        1 UNL1     0.0305
     14 C         5.98361   3.904967   3.852047 C.2        1 UNL1     0.0924
     15 N         5.189784   4.019778   5.895569 N.pl3        1 UNL1     -0.3170
     16 C         4.395034   3.080952   5.149089 C.3        1 UNL1     0.1275
     17 N         4.812735   3.289426   3.713892 N.2        1 UNL1     -0.2557
     18 C         4.871045   1.682314   5.529781 C.3        1 UNL1     0.0016
     19 C         4.771397   1.528716   7.039108 C.3        1 UNL1     0.0026
     20 N         3.387137   1.738336   7.440246 N.3        1 UNL1     -0.3018
     21 C         2.819813   3.034402   7.062456 C.3        1 UNL1     0.0026
     22 C         2.92605   3.165543   5.542123 C.3        1 UNL1     0.0016
     23 C         3.126386   1.323954   8.804409 C.3        1 UNL1     0.0012
     24 C         1.657147   1.581663   9.17411 C.3        1 UNL1     -0.0339
     25 C         1.397654   3.073549   9.440564 C.3        1 UNL1     -0.0615
     26 C         0.744138   1.040817   8.087519 C.3        1 UNL1     -0.0615
     27 C         9.105551   5.291595   2.188993 C.ar        1 UNL1     0.1347
     28 C         8.874867   5.116046   0.836212 C.ar        1 UNL1     0.0342
     29 C         7.588786   4.62859   0.520703 C.ar        1 UNL1     0.1435
     30 C         6.643238   4.302969   1.49391 C.ar        1 UNL1     0.0774
     31 O         7.250516   4.300428   -0.74535 O.3        1 UNL1     -0.4436
     32 C         6.113523   3.435425   -0.604321 C.3        1 UNL1     0.3143
     33 C         5.518945   3.779711   0.746292 C.2        1 UNL1     0.2504
     34 C         9.900901   5.235934   -0.256025 C.3        1 UNL1     -0.0327
     35 O         5.154692   3.827376   -1.594407 O.2        1 UNL1     -0.4528
     36 C         3.237537   0.676455   -2.491235 C.3        1 UNL1     0.0854
     37 C         2.417241   -0.291361   -1.554234 C.3        1 UNL1     0.0236
     38 C         0.894716   -0.531118   -1.997152 C.3        1 UNL1     0.1131
     39 C         -0.03883   0.708951   -2.302098 C.3        1 UNL1     0.0200
     40 C         -0.027   2.042117   -1.299618 C.3        1 UNL1     0.0661
     41 C         -0.168034   2.015627   0.390653 C.3        1 UNL1     0.0091
     42 C         0.553226   3.123606   1.66249 C.3        1 UNL1     0.0661
     43 C         8.535769   5.023272   4.612008 C.2        1 UNL1     0.2131
     44 O         9.68024   5.08155   5.023746 O.2        1 UNL1     -0.2851
     45 O         10.311022   5.852579   2.605616 O.3        1 UNL1     -0.5056
     46 O         4.37109   3.668117   1.114844 O.2        1 UNL1     -0.2836
     47 C         0.424444   5.788031   1.616989 C.3        1 UNL1     -0.0566
     48 O         -0.722371   3.29687   2.398661 O.3        1 UNL1     -0.3909
     49 C         0.034417   0.597231   0.875071 C.3        1 UNL1     -0.0577
     50 O         0.984474   2.950653   -1.685891 O.3        1 UNL1     -0.3910
     51 O         2.496796   1.3423   -3.488924 O.3        1 UNL1     -0.3753
     52 C         2.83253   -0.13946   -0.054431 C.3        1 UNL1     -0.0564
     53 O         0.248613   -1.702343   -1.31663 O.3        1 UNL1     -0.4608
     54 C         0.396709   -3.014911   -1.681545 C.2        1 UNL1     0.3042
     55 O         -0.010641   -3.554894   -2.709321 O.2        1 UNL1     -0.2512
     56 C         1.202376   -3.823424   -0.704856 C.3        1 UNL1     0.0332
     57 C         -0.002628   0.963202   -3.880774 C.3        1 UNL1     -0.0567
     58 C         6.665845   1.991878   -0.552911 C.3        1 UNL1     0.0210
     59 C         3.202518   1.569906   -4.707947 C.3        1 UNL1     0.0372
     60 C         4.031911   1.71555   -1.781016 C.2        1 UNL1     -0.0208
     61 C         4.169851   3.018504   -2.030071 C.2        1 UNL1     0.0882
     62 H         2.168276   4.548149   1.53913 H        1 UNL1     0.0365
     63 H         3.458619   5.5383   2.773976 H        1 UNL1     0.0576
     64 H         2.11768   6.229564   5.461133 H        1 UNL1     0.0615
     65 H         5.028009   6.58435   4.383184 H        1 UNL1     0.0622
     66 H         3.969855   0.024581   -2.988042 H        1 UNL1     0.0645
     67 H         2.85958   -1.285127   -1.742184 H        1 UNL1     0.0362
     68 H         1.060718   -1.017673   -2.97041 H        1 UNL1     0.0741
     69 H         -1.070743   0.387243   -2.256635 H        1 UNL1     0.0359
     70 H         -0.970138   2.527178   -1.61627 H        1 UNL1     0.0600
     71 H         -1.265268   2.126012   0.494814 H        1 UNL1     0.0348
     72 H         0.5967   3.680531   0.715252 H        1 UNL1     0.0602
     73 H         4.637197   1.249218   -1.043852 H        1 UNL1     0.0628
     74 H         3.548764   3.582244   -2.726983 H        1 UNL1     0.1022
     75 H         3.996991   7.678157   8.183364 H        1 UNL1     0.0279
     76 H         5.072969   6.409953   8.616065 H        1 UNL1     0.0279
     77 H         5.661281   8.084314   8.261519 H        1 UNL1     0.0279
     78 H         6.717656   5.196985   7.341741 H        1 UNL1     0.1553
     79 H         5.11069   4.129414   6.889882 H        1 UNL1     0.1484
     80 H         4.252812   0.94043   5.010009 H        1 UNL1     0.0317
     81 H         5.902467   1.516876   5.200465 H        1 UNL1     0.0317
     82 H         5.444975   2.221862   7.564233 H        1 UNL1     0.0428
     83 H         5.117292   0.525232   7.28896 H        1 UNL1     0.0428
     84 H         1.757196   3.135339   7.304258 H        1 UNL1     0.0428
     85 H         3.296597   3.862902   7.604288 H        1 UNL1     0.0428
     86 H         2.385124   4.058765   5.290048 H        1 UNL1     0.0317
     87 H         2.345758   2.371736   5.056089 H        1 UNL1     0.0317
     88 H         3.321137   0.245951   8.877039 H        1 UNL1     0.0429
     89 H         3.805152   1.821584   9.508976 H        1 UNL1     0.0429
     90 H         1.410595   1.016932   10.08103 H        1 UNL1     0.0308
     91 H         2.15865   3.49759   10.102513 H        1 UNL1     0.0233
     92 H         1.382881   3.636323   8.504254 H        1 UNL1     0.0233
     93 H         0.426384   3.249649   9.918539 H        1 UNL1     0.0233
     94 H         0.815594   1.663846   7.189429 H        1 UNL1     0.0233
     95 H         1.045492   0.024749   7.817791 H        1 UNL1     0.0233
     96 H         -0.299273   1.024446   8.414619 H        1 UNL1     0.0233
     97 H         10.856171   5.590496   0.119441 H        1 UNL1     0.0280
     98 H         10.106778   4.271326   -0.738106 H        1 UNL1     0.0280
     99 H         9.544974   5.945965   -1.020398 H        1 UNL1     0.0280
     100 H         10.886217   5.256921   3.052791 H        1 UNL1     0.2922
     101 H         0.354745   6.652179   2.277326 H        1 UNL1     0.0236
     102 H         -0.556911   5.399332   1.347102 H        1 UNL1     0.0236
     103 H         0.837001   6.187737   0.675594 H        1 UNL1     0.0236
     104 H         -0.732886   4.204375   2.761007 H        1 UNL1     0.2098
     105 H         0.990781   0.420777   1.360914 H        1 UNL1     0.0234
     106 H         -0.777998   0.204475   1.486342 H        1 UNL1     0.0234
     107 H         0.0   -0.0   0.0 H        1 UNL1     0.0234
     108 H         1.840903   2.557483   -1.429546 H        1 UNL1     0.2098
     109 H         3.865094   0.219872   0.056942 H        1 UNL1     0.0234
     110 H         2.15631   0.506245   0.516126 H        1 UNL1     0.0234
     111 H         2.793413   -1.1004   0.475674 H        1 UNL1     0.0234
     112 H         1.694608   -4.651443   -1.223928 H        1 UNL1     0.0342
     113 H         1.926829   -3.213307   -0.167483 H        1 UNL1     0.0342
     114 H         0.513624   -4.252254   0.036015 H        1 UNL1     0.0342
     115 H         -0.894647   1.502482   -4.228147 H        1 UNL1     0.0234
     116 H         0.871806   1.521745   -4.220544 H        1 UNL1     0.0234
     117 H         -0.067911   0.036911   -4.47715 H        1 UNL1     0.0234
     118 H         6.677969   1.58897   0.474963 H        1 UNL1     0.0309
     119 H         6.120516   1.299839   -1.202449 H        1 UNL1     0.0309
     120 H         7.715752   1.932335   -0.859921 H        1 UNL1     0.0309
     121 H         2.463266   1.744476   -5.48922 H        1 UNL1     0.0524
     122 H         3.848664   2.462058   -4.656991 H        1 UNL1     0.0524
     123 H         3.812941   0.706152   -4.955752 H        1 UNL1     0.0524
@<TRIPOS>BOND
     1     1     2    1
     2     1    42    1
     3     2     3    2
     4     3     4    1
     5     4     5    2
     6     5     7    1
     7     6    75    1
     8     6    76    1
     9     6    77    1
    10     7     9   am
    11     9    10    1
    12    10    11    2
    13    10    43    1
    14    11    14    1
    15    11    15    1
    16    12    13   ar
    17    12    27   ar
    18    12    43    1
    19    13    14    1
    20    13    30   ar
    21    14    17    2
    22    15    16    1
    23    16    17    1
    24    16    18    1
    25    16    22    1
    26    18    19    1
    27    19    20    1
    28    20    21    1
    29    21    22    1
    30    23    24    1
    31    23    88    1
    32    23    89    1
    33    24    25    1
    34    24    26    1
    35    24    90    1
    36    25    91    1
    37    25    92    1
    38    25    93    1
    39    26    94    1
    40    26    95    1
    41    26    96    1
    42    27    28   ar
    43    28    29   ar
    44    29    30   ar
    45    29    31    1
    46    30    33    1
    47    31    32    1
    48    32    33    1
    49    32    35    1
    50    34    97    1
    51    34    98    1
    52    34    99    1
    53    35    61    1
    54    36    37    1
    55    36    60    1
    56    37    38    1
    57    38    39    1
    58    39    40    1
    59    40    41    1
    60    41    42    1
    61    45   100    1
    62    47   101    1
    63    47   102    1
    64    47   103    1
    65    48   104    1
    66    49   105    1
    67    49   106    1
    68    49   107    1
    69    50   108    1
    70    51    59    1
    71    52   109    1
    72    52   110    1
    73    52   111    1
    74    53    54    1
    75    54    55    2
    76    54    56    1
    77    56   112    1
    78    56   113    1
    79    56   114    1
    80    57   115    1
    81    57   116    1
    82    57   117    1
    83    58   118    1
    84    58   119    1
    85    58   120    1
    86    59   121    1
    87    59   122    1
    88    59   123    1
    89    60    61    2
    90     1    47    1
    91     1    62    1
    92     2    63    1
    93     3    64    1
    94     4    65    1
    95     5     6    1
    96     7     8    2
    97     9    78    1
    98    15    79    1
    99    18    80    1
   100    18    81    1
   101    19    82    1
   102    19    83    1
   103    20    23    1
   104    21    84    1
   105    21    85    1
   106    22    86    1
   107    22    87    1
   108    27    45    1
   109    28    34    1
   110    32    58    1
   111    33    46    2
   112    36    51    1
   113    36    66    1
   114    37    52    1
   115    37    67    1
   116    38    53    1
   117    38    68    1
   118    42    48    1
   119    42    72    1
   120    43    44    2
   121    60    73    1
   122    61    74    1
   123    39    69    1
   124    39    57    1
   125    40    70    1
   126    40    50    1
   127    41    71    1
   128    41    49    1
