@<TRIPOS>MOLECULE
*****
 123 128 0 0 0
SMALL
GASTEIGER

@<TRIPOS>ATOM
     1 C         3.302176   4.190919   -1.237379 C.3        1 UNL1     0.0009
     2 C         3.469283   5.799858   -2.143152 C.2        1 UNL1     -0.0787
     3 C         3.937335   6.55503   -3.286258 C.2        1 UNL1     -0.0649
     4 C         3.649634   8.184269   -3.645653 C.2        1 UNL1     -0.0542
     5 C         3.635846   9.162243   -4.67057 C.2        1 UNL1     0.0115
     6 C         4.033427   9.441877   -6.146056 C.3        1 UNL1     -0.0348
     7 C         2.833871   10.531396   -4.427168 C.2        1 UNL1     0.2441
     8 O         3.386485   11.584026   -4.138873 O.2        1 UNL1     -0.2702
     9 N         1.484925   10.501949   -4.821665 N.am        1 UNL1     -0.2772
     10 C         0.69349   10.046017   -3.792549 C.2        1 UNL1     0.1049
     11 C         0.614248   8.734777   -3.656198 C.2        1 UNL1     0.0801
     12 C         0.229462   10.366165   -1.355436 C.ar        1 UNL1     0.0753
     13 C         0.361274   8.947019   -1.22406 C.ar        1 UNL1     0.0305
     14 C         0.427563   8.073231   -2.393312 C.2        1 UNL1     0.0924
     15 N         1.012124   7.754486   -4.485205 N.pl3        1 UNL1     -0.3170
     16 C         0.540506   6.505963   -3.947599 C.3        1 UNL1     0.1275
     17 N         0.450218   6.745096   -2.460189 N.2        1 UNL1     -0.2557
     18 C         -0.893189   6.317027   -4.433936 C.3        1 UNL1     0.0016
     19 C         -0.905388   6.39125   -5.952466 C.3        1 UNL1     0.0026
     20 N         -0.032251   5.351163   -6.478658 N.3        1 UNL1     -0.3018
     21 C         1.356212   5.412853   -6.017429 C.3        1 UNL1     0.0026
     22 C         1.345066   5.332037   -4.489935 C.3        1 UNL1     0.0016
     23 C         -0.201313   5.139952   -7.902545 C.3        1 UNL1     0.0012
     24 C         -1.558945   4.480455   -8.191776 C.3        1 UNL1     -0.0339
     25 C         -2.620745   5.524152   -8.575618 C.3        1 UNL1     -0.0615
     26 C         -1.403835   3.41924   -9.267203 C.3        1 UNL1     -0.0615
     27 C         0.045544   11.180242   -0.240282 C.ar        1 UNL1     0.1347
     28 C         -0.06214   10.688075   1.048216 C.ar        1 UNL1     0.0342
     29 C         0.119538   9.293084   1.158469 C.ar        1 UNL1     0.1435
     30 C         0.340586   8.469194   0.05413 C.ar        1 UNL1     0.0774
     31 O         -0.065113   8.648865   2.331453 O.3        1 UNL1     -0.4436
     32 C         -0.263144   7.275415   1.963634 C.3        1 UNL1     0.3143
     33 C         0.391528   7.130891   0.604689 C.2        1 UNL1     0.2504
     34 C         -0.507694   11.466206   2.254903 C.3        1 UNL1     -0.0327
     35 O         0.495273   6.475611   2.879259 O.2        1 UNL1     -0.4528
     36 C         -1.372385   3.184817   3.180289 C.3        1 UNL1     0.0854
     37 C         -1.774739   2.160602   2.050415 C.3        1 UNL1     0.0236
     38 C         -1.268397   0.657786   2.288965 C.3        1 UNL1     0.1131
     39 C         0.252082   0.386508   2.63076 C.3        1 UNL1     0.0200
     40 C         1.459859   1.181568   1.799139 C.3        1 UNL1     0.0661
     41 C         1.587572   1.307898   0.112325 C.3        1 UNL1     0.0091
     42 C         2.268199   2.653763   -0.932087 C.3        1 UNL1     0.0661
     43 C         0.205451   10.933532   -2.726486 C.2        1 UNL1     0.2131
     44 O         -0.277837   12.01775   -2.997855 O.2        1 UNL1     -0.2851
     45 O         -0.027925   12.555654   -0.450715 O.3        1 UNL1     -0.5056
     46 O         0.867987   6.139135   0.099457 O.2        1 UNL1     -0.2836
     47 C         4.655781   3.793823   -0.589265 C.3        1 UNL1     -0.0566
     48 O         3.07331   1.742562   -1.780983 O.3        1 UNL1     -0.3909
     49 C         0.274177   0.888291   -0.5093 C.3        1 UNL1     -0.0577
     50 O         1.744733   2.428772   2.400015 O.3        1 UNL1     -0.3910
     51 O         -0.480714   2.702479   4.159935 O.3        1 UNL1     -0.3753
     52 C         -1.769942   2.824497   0.634729 C.3        1 UNL1     -0.0564
     53 O         -1.945324   -0.351024   1.40783 O.3        1 UNL1     -0.4608
     54 C         -1.469756   -1.604289   1.123069 C.2        1 UNL1     0.3042
     55 O         -1.053105   -2.017088   0.041478 O.2        1 UNL1     -0.2512
     56 C         -1.424209   -2.515729   2.316349 C.3        1 UNL1     0.0332
     57 C         0.379546   0.29407   4.22242 C.3        1 UNL1     -0.0567
     58 C         -1.789108   7.080589   1.805501 C.3        1 UNL1     0.0210
     59 C         -0.578761   3.347057   5.429096 C.3        1 UNL1     0.0372
     60 C         -0.814768   4.474784   2.690178 C.2        1 UNL1     -0.0208
     61 C         0.244419   5.171579   3.104116 C.2        1 UNL1     0.0882
     62 H         2.724325   4.709112   -0.462605 H        1 UNL1     0.0365
     63 H         3.024594   6.487382   -1.420634 H        1 UNL1     0.0576
     64 H         4.409116   6.065731   -4.141312 H        1 UNL1     0.0615
     65 H         3.256826   8.592046   -2.710292 H        1 UNL1     0.0622
     66 H         -2.320756   3.435485   3.676076 H        1 UNL1     0.0645
     67 H         -2.866231   2.045856   2.168895 H        1 UNL1     0.0362
     68 H         -1.821342   0.421537   3.210898 H        1 UNL1     0.0741
     69 H         0.473071   -0.653848   2.43269 H        1 UNL1     0.0359
     70 H         2.324896   0.543447   2.062906 H        1 UNL1     0.0600
     71 H         2.220506   0.424081   -0.100324 H        1 UNL1     0.0348
     72 H         2.687369   2.808221   0.072778 H        1 UNL1     0.0602
     73 H         -1.479277   4.893588   1.97584 H        1 UNL1     0.0628
     74 H         1.003633   4.791307   3.788385 H        1 UNL1     0.1022
     75 H         4.487022   8.532461   -6.608924 H        1 UNL1     0.0279
     76 H         3.221473   9.673534   -6.83172 H        1 UNL1     0.0279
     77 H         4.857898   10.164435   -6.234704 H        1 UNL1     0.0279
     78 H         1.371069   9.859895   -5.603254 H        1 UNL1     0.1553
     79 H         1.194759   7.891319   -5.462371 H        1 UNL1     0.1484
     80 H         -1.267194   5.34975   -4.077198 H        1 UNL1     0.0317
     81 H         -1.553334   7.082932   -4.012927 H        1 UNL1     0.0317
     82 H         -0.600499   7.384349   -6.314004 H        1 UNL1     0.0428
     83 H         -1.937278   6.255888   -6.277934 H        1 UNL1     0.0428
     84 H         1.970849   4.575882   -6.363134 H        1 UNL1     0.0428
     85 H         1.875464   6.301727   -6.401613 H        1 UNL1     0.0428
     86 H         2.374991   5.245733   -4.197027 H        1 UNL1     0.0317
     87 H         0.908976   4.378364   -4.168329 H        1 UNL1     0.0317
     88 H         -0.17568   6.119083   -8.398468 H        1 UNL1     0.0429
     89 H         0.623517   4.547106   -8.318433 H        1 UNL1     0.0429
     90 H         -1.899052   3.95006   -7.294435 H        1 UNL1     0.0308
     91 H         -2.305931   6.111114   -9.443645 H        1 UNL1     0.0233
     92 H         -3.57531   5.040842   -8.796583 H        1 UNL1     0.0233
     93 H         -2.818791   6.235984   -7.76512 H        1 UNL1     0.0233
     94 H         -2.388074   3.083826   -9.611598 H        1 UNL1     0.0233
     95 H         -0.869137   3.83349   -10.126538 H        1 UNL1     0.0233
     96 H         -0.853724   2.55071   -8.894373 H        1 UNL1     0.0233
     97 H         -0.555357   10.845893   3.144942 H        1 UNL1     0.0280
     98 H         0.181558   12.285877   2.496413 H        1 UNL1     0.0280
     99 H         -1.510067   11.887248   2.073058 H        1 UNL1     0.0280
     100 H         -0.795479   12.966038   -0.092846 H        1 UNL1     0.2922
     101 H         4.532938   2.876276   -0.014223 H        1 UNL1     0.0236
     102 H         5.097216   4.593039   0.005185 H        1 UNL1     0.0236
     103 H         5.421091   3.550136   -1.344983 H        1 UNL1     0.0236
     104 H         3.973452   1.70519   -1.402409 H        1 UNL1     0.2098
     105 H         -0.53212   1.606482   -0.383214 H        1 UNL1     0.0234
     106 H         0.342674   0.576313   -1.551367 H        1 UNL1     0.0234
     107 H         0.0   -0.0   0.0 H        1 UNL1     0.0234
     108 H         0.950816   2.988213   2.297593 H        1 UNL1     0.2098
     109 H         -0.786825   3.240497   0.373699 H        1 UNL1     0.0234
     110 H         -2.103959   2.14777   -0.159133 H        1 UNL1     0.0234
     111 H         -2.472933   3.666382   0.580135 H        1 UNL1     0.0234
     112 H         -1.017166   -3.489026   2.025912 H        1 UNL1     0.0342
     113 H         -0.856398   -2.084648   3.139516 H        1 UNL1     0.0342
     114 H         -2.453303   -2.672389   2.667898 H        1 UNL1     0.0342
     115 H         -0.247747   -0.507317   4.636509 H        1 UNL1     0.0234
     116 H         1.398895   0.129753   4.577353 H        1 UNL1     0.0234
     117 H         -0.026202   1.175491   4.748164 H        1 UNL1     0.0234
     118 H         -2.286288   6.897571   2.774172 H        1 UNL1     0.0309
     119 H         -2.279835   7.920863   1.304175 H        1 UNL1     0.0309
     120 H         -2.040667   6.189421   1.220144 H        1 UNL1     0.0309
     121 H         -0.329877   4.398103   5.285173 H        1 UNL1     0.0524
     122 H         -1.599544   3.301395   5.843772 H        1 UNL1     0.0524
     123 H         0.109563   2.892234   6.135808 H        1 UNL1     0.0524
@<TRIPOS>BOND
     1     1     2    1
     2     1    42    1
     3     2     3    2
     4     3     4    1
     5     4     5    2
     6     5     7    1
     7     6    75    1
     8     6    76    1
     9     6    77    1
    10     7     9   am
    11     9    10    1
    12    10    11    2
    13    10    43    1
    14    11    14    1
    15    11    15    1
    16    12    13   ar
    17    12    27   ar
    18    12    43    1
    19    13    14    1
    20    13    30   ar
    21    14    17    2
    22    15    16    1
    23    16    17    1
    24    16    18    1
    25    16    22    1
    26    18    19    1
    27    19    20    1
    28    20    21    1
    29    21    22    1
    30    23    24    1
    31    23    88    1
    32    23    89    1
    33    24    25    1
    34    24    26    1
    35    24    90    1
    36    25    91    1
    37    25    92    1
    38    25    93    1
    39    26    94    1
    40    26    95    1
    41    26    96    1
    42    27    28   ar
    43    28    29   ar
    44    29    30   ar
    45    29    31    1
    46    30    33    1
    47    31    32    1
    48    32    33    1
    49    32    35    1
    50    34    97    1
    51    34    98    1
    52    34    99    1
    53    35    61    1
    54    36    37    1
    55    36    60    1
    56    37    38    1
    57    38    39    1
    58    39    40    1
    59    40    41    1
    60    41    42    1
    61    45   100    1
    62    47   101    1
    63    47   102    1
    64    47   103    1
    65    48   104    1
    66    49   105    1
    67    49   106    1
    68    49   107    1
    69    50   108    1
    70    51    59    1
    71    52   109    1
    72    52   110    1
    73    52   111    1
    74    53    54    1
    75    54    55    2
    76    54    56    1
    77    56   112    1
    78    56   113    1
    79    56   114    1
    80    57   115    1
    81    57   116    1
    82    57   117    1
    83    58   118    1
    84    58   119    1
    85    58   120    1
    86    59   121    1
    87    59   122    1
    88    59   123    1
    89    60    61    2
    90     1    47    1
    91     1    62    1
    92     2    63    1
    93     3    64    1
    94     4    65    1
    95     5     6    1
    96     7     8    2
    97     9    78    1
    98    15    79    1
    99    18    80    1
   100    18    81    1
   101    19    82    1
   102    19    83    1
   103    20    23    1
   104    21    84    1
   105    21    85    1
   106    22    86    1
   107    22    87    1
   108    27    45    1
   109    28    34    1
   110    32    58    1
   111    33    46    2
   112    36    51    1
   113    36    66    1
   114    37    52    1
   115    37    67    1
   116    38    53    1
   117    38    68    1
   118    42    48    1
   119    42    72    1
   120    43    44    2
   121    60    73    1
   122    61    74    1
   123    39    69    1
   124    39    57    1
   125    40    70    1
   126    40    50    1
   127    41    71    1
   128    41    49    1
