@<TRIPOS>MOLECULE
*****
 123 128 0 0 0
SMALL
GASTEIGER

@<TRIPOS>ATOM
     1 C         -1.714628   -3.256757   2.904558 C.3        1 UNL1     0.0009
     2 C         -0.958264   -4.778758   3.64514 C.2        1 UNL1     -0.0787
     3 C         -0.904017   -6.219916   3.772281 C.2        1 UNL1     -0.0649
     4 C         0.225622   -7.147369   4.626743 C.2        1 UNL1     -0.0542
     5 C         0.801067   -8.43401   4.769906 C.2        1 UNL1     0.0115
     6 C         0.672822   -9.922412   4.343836 C.3        1 UNL1     -0.0348
     7 C         2.2017   -8.577169   5.54109 C.2        1 UNL1     0.2441
     8 O         2.288499   -8.974502   6.69483 O.2        1 UNL1     -0.2702
     9 N         3.338943   -8.465974   4.722271 N.am        1 UNL1     -0.2772
     10 C         3.722214   -7.149315   4.608978 C.2        1 UNL1     0.1049
     11 C         3.081116   -6.432311   3.703925 C.2        1 UNL1     0.0801
     12 C         4.190601   -5.096512   5.959513 C.ar        1 UNL1     0.0753
     13 C         3.313866   -4.403363   5.065371 C.ar        1 UNL1     0.0305
     14 C         2.835083   -5.021384   3.830921 C.2        1 UNL1     0.0924
     15 N         2.252398   -6.823352   2.720644 N.pl3        1 UNL1     -0.3170
     16 C         1.960278   -5.672184   1.908405 C.3        1 UNL1     0.1275
     17 N         2.106873   -4.499996   2.847665 N.2        1 UNL1     -0.2557
     18 C         3.087098   -5.540894   0.888238 C.3        1 UNL1     0.0016
     19 C         3.196064   -6.844546   0.113507 C.3        1 UNL1     0.0026
     20 N         1.922717   -7.106332   -0.543061 N.3        1 UNL1     -0.3018
     21 C         0.766833   -7.188279   0.352252 C.3        1 UNL1     0.0026
     22 C         0.673676   -5.866766   1.116988 C.3        1 UNL1     0.0016
     23 C         2.007359   -8.154922   -1.540025 C.3        1 UNL1     0.0012
     24 C         1.457119   -7.662417   -2.887775 C.3        1 UNL1     -0.0339
     25 C         1.625129   -6.141872   -3.041964 C.3        1 UNL1     -0.0615
     26 C         2.119634   -8.416456   -4.027634 C.3        1 UNL1     -0.0615
     27 C         4.738695   -4.460171   7.07072 C.ar        1 UNL1     0.1347
     28 C         4.515802   -3.127465   7.367811 C.ar        1 UNL1     0.0342
     29 C         3.610773   -2.478559   6.501204 C.ar        1 UNL1     0.1435
     30 C         3.025685   -3.113319   5.404859 C.ar        1 UNL1     0.0774
     31 O         3.375797   -1.151383   6.592843 O.3        1 UNL1     -0.4436
     32 C         2.821108   -0.792442   5.318342 C.3        1 UNL1     0.3143
     33 C         2.244218   -2.0781   4.761122 C.2        1 UNL1     0.2504
     34 C         5.261752   -2.315165   8.38949 C.3        1 UNL1     -0.0327
     35 O         1.717347   0.086956   5.566581 O.2        1 UNL1     -0.4528
     36 C         1.517468   2.383088   2.550638 C.3        1 UNL1     0.0854
     37 C         1.351809   2.013543   1.026329 C.3        1 UNL1     0.0236
     38 C         0.110198   2.714278   0.292084 C.3        1 UNL1     0.1131
     39 C         -1.330821   2.636633   0.939932 C.3        1 UNL1     0.0200
     40 C         -1.891176   1.20393   1.584758 C.3        1 UNL1     0.0661
     41 C         -1.865764   -0.308483   0.816923 C.3        1 UNL1     0.0091
     42 C         -1.678103   -1.994525   1.515098 C.3        1 UNL1     0.0661
     43 C         4.568066   -6.489708   5.614865 C.2        1 UNL1     0.2131
     44 O         5.567195   -7.041037   6.039735 O.2        1 UNL1     -0.2851
     45 O         5.545853   -5.219009   7.915764 O.3        1 UNL1     -0.5056
     46 O         1.330519   -2.21729   3.979051 O.2        1 UNL1     -0.2836
     47 C         -3.094207   -2.968719   3.555541 C.3        1 UNL1     -0.0566
     48 O         -2.812494   -2.562321   0.747062 O.3        1 UNL1     -0.3909
     49 C         -0.958766   -0.227509   -0.390675 C.3        1 UNL1     -0.0577
     50 O         -1.486422   1.068585   2.932193 O.3        1 UNL1     -0.3910
     51 O         0.468953   3.13404   3.119952 O.3        1 UNL1     -0.3753
     52 C         1.758435   0.531203   0.739501 C.3        1 UNL1     -0.0564
     53 O         0.174725   2.634183   -1.205163 O.3        1 UNL1     -0.4608
     54 C         0.066639   1.486007   -1.945391 C.2        1 UNL1     0.3042
     55 O         -0.959843   0.988623   -2.406674 O.2        1 UNL1     -0.2512
     56 C         1.38763   0.835001   -2.24185 C.3        1 UNL1     0.0332
     57 C         -1.549601   3.973007   1.791058 C.3        1 UNL1     -0.0567
     58 C         4.009862   -0.353646   4.431859 C.3        1 UNL1     0.0210
     59 C         -0.622781   2.359914   3.614635 C.3        1 UNL1     0.0372
     60 C         1.757421   1.22617   3.455692 C.2        1 UNL1     -0.0208
     61 C         1.221418   0.929721   4.640413 C.2        1 UNL1     0.0882
     62 H         -0.979634   -2.650502   3.447651 H        1 UNL1     0.0365
     63 H         -0.242816   -4.333317   4.339537 H        1 UNL1     0.0576
     64 H         -1.530952   -6.872524   3.160592 H        1 UNL1     0.0615
     65 H         0.739152   -6.416589   5.257402 H        1 UNL1     0.0622
     66 H         2.432429   2.990859   2.58945 H        1 UNL1     0.0645
     67 H         2.206305   2.510997   0.535477 H        1 UNL1     0.0362
     68 H         0.414201   3.768311   0.382188 H        1 UNL1     0.0741
     69 H         -2.06701   2.858041   0.17874 H        1 UNL1     0.0359
     70 H         -2.972937   1.430944   1.642366 H        1 UNL1     0.0600
     71 H         -2.864944   -0.299375   0.338893 H        1 UNL1     0.0348
     72 H         -1.987848   -1.35235   2.352346 H        1 UNL1     0.0602
     73 H         2.570009   0.65361   3.082697 H        1 UNL1     0.0628
     74 H         0.350768   1.429924   5.06586 H        1 UNL1     0.1022
     75 H         0.95545   -10.048784   3.270902 H        1 UNL1     0.0279
     76 H         1.331346   -10.628767   4.844313 H        1 UNL1     0.0279
     77 H         -0.369179   -10.274378   4.336453 H        1 UNL1     0.0279
     78 H         3.121237   -8.803219   3.786885 H        1 UNL1     0.1553
     79 H         2.209589   -7.762101   2.368718 H        1 UNL1     0.1484
     80 H         2.870375   -4.696471   0.222845 H        1 UNL1     0.0317
     81 H         4.037962   -5.314501   1.38246 H        1 UNL1     0.0317
     82 H         3.485106   -7.682365   0.764988 H        1 UNL1     0.0428
     83 H         4.006465   -6.729698   -0.606986 H        1 UNL1     0.0428
     84 H         -0.186651   -7.305675   -0.172054 H        1 UNL1     0.0428
     85 H         0.820106   -8.067463   1.00915 H        1 UNL1     0.0428
     86 H         -0.252586   -5.91073   1.659293 H        1 UNL1     0.0317
     87 H         0.517968   -5.038063   0.415488 H        1 UNL1     0.0317
     88 H         3.065234   -8.418338   -1.669666 H        1 UNL1     0.0429
     89 H         1.488044   -9.063285   -1.20842 H        1 UNL1     0.0429
     90 H         0.389352   -7.903793   -2.949617 H        1 UNL1     0.0308
     91 H         1.689353   -5.853623   -4.095478 H        1 UNL1     0.0233
     92 H         0.791529   -5.611831   -2.575299 H        1 UNL1     0.0233
     93 H         2.534786   -5.770664   -2.554561 H        1 UNL1     0.0233
     94 H         3.209401   -8.338597   -3.949006 H        1 UNL1     0.0233
     95 H         1.853016   -9.475968   -3.979564 H        1 UNL1     0.0233
     96 H         1.81405   -8.019313   -4.999675 H        1 UNL1     0.0233
     97 H         6.092302   -2.866085   8.820656 H        1 UNL1     0.0280
     98 H         5.697178   -1.404959   7.956841 H        1 UNL1     0.0280
     99 H         4.577095   -2.028409   9.204419 H        1 UNL1     0.0280
     100 H         5.421594   -5.048728   8.832926 H        1 UNL1     0.2922
     101 H         -3.849634   -3.622986   3.12089 H        1 UNL1     0.0236
     102 H         -3.382489   -1.919403   3.502522 H        1 UNL1     0.0236
     103 H         -3.102308   -3.208325   4.631978 H        1 UNL1     0.0236
     104 H         -3.597014   -2.007963   0.926469 H        1 UNL1     0.2098
     105 H         -0.877277   -1.153671   -0.954053 H        1 UNL1     0.0234
     106 H         -1.167171   0.605727   -1.061654 H        1 UNL1     0.0234
     107 H         0.0   0.0   0.0 H        1 UNL1     0.0234
     108 H         -2.067992   1.641045   3.468694 H        1 UNL1     0.2098
     109 H         2.461879   0.140545   1.48801 H        1 UNL1     0.0234
     110 H         0.898877   -0.142737   0.657601 H        1 UNL1     0.0234
     111 H         2.268151   0.431325   -0.228053 H        1 UNL1     0.0234
     112 H         2.204623   1.483177   -1.910586 H        1 UNL1     0.0342
     113 H         1.466804   -0.153887   -1.792768 H        1 UNL1     0.0342
     114 H         1.473902   0.714088   -3.330474 H        1 UNL1     0.0342
     115 H         -2.60043   4.102917   2.084434 H        1 UNL1     0.0234
     116 H         -0.946271   4.024484   2.699568 H        1 UNL1     0.0234
     117 H         -1.374047   4.896494   1.212876 H        1 UNL1     0.0234
     118 H         4.580391   0.476219   4.884437 H        1 UNL1     0.0309
     119 H         4.695932   -1.173494   4.196573 H        1 UNL1     0.0309
     120 H         3.687018   0.057358   3.469075 H        1 UNL1     0.0309
     121 H         -0.302086   1.318938   3.644318 H        1 UNL1     0.0524
     122 H         -0.909592   2.648276   4.639634 H        1 UNL1     0.0524
     123 H         -1.485602   2.467897   2.963502 H        1 UNL1     0.0524
@<TRIPOS>BOND
     1     1     2    1
     2     1    42    1
     3     2     3    2
     4     3     4    1
     5     4     5    2
     6     5     7    1
     7     6    75    1
     8     6    76    1
     9     6    77    1
    10     7     9   am
    11     9    10    1
    12    10    11    2
    13    10    43    1
    14    11    14    1
    15    11    15    1
    16    12    13   ar
    17    12    27   ar
    18    12    43    1
    19    13    14    1
    20    13    30   ar
    21    14    17    2
    22    15    16    1
    23    16    17    1
    24    16    18    1
    25    16    22    1
    26    18    19    1
    27    19    20    1
    28    20    21    1
    29    21    22    1
    30    23    24    1
    31    23    88    1
    32    23    89    1
    33    24    25    1
    34    24    26    1
    35    24    90    1
    36    25    91    1
    37    25    92    1
    38    25    93    1
    39    26    94    1
    40    26    95    1
    41    26    96    1
    42    27    28   ar
    43    28    29   ar
    44    29    30   ar
    45    29    31    1
    46    30    33    1
    47    31    32    1
    48    32    33    1
    49    32    35    1
    50    34    97    1
    51    34    98    1
    52    34    99    1
    53    35    61    1
    54    36    37    1
    55    36    60    1
    56    37    38    1
    57    38    39    1
    58    39    40    1
    59    40    41    1
    60    41    42    1
    61    45   100    1
    62    47   101    1
    63    47   102    1
    64    47   103    1
    65    48   104    1
    66    49   105    1
    67    49   106    1
    68    49   107    1
    69    50   108    1
    70    51    59    1
    71    52   109    1
    72    52   110    1
    73    52   111    1
    74    53    54    1
    75    54    55    2
    76    54    56    1
    77    56   112    1
    78    56   113    1
    79    56   114    1
    80    57   115    1
    81    57   116    1
    82    57   117    1
    83    58   118    1
    84    58   119    1
    85    58   120    1
    86    59   121    1
    87    59   122    1
    88    59   123    1
    89    60    61    2
    90     1    47    1
    91     1    62    1
    92     2    63    1
    93     3    64    1
    94     4    65    1
    95     5     6    1
    96     7     8    2
    97     9    78    1
    98    15    79    1
    99    18    80    1
   100    18    81    1
   101    19    82    1
   102    19    83    1
   103    20    23    1
   104    21    84    1
   105    21    85    1
   106    22    86    1
   107    22    87    1
   108    27    45    1
   109    28    34    1
   110    32    58    1
   111    33    46    2
   112    36    51    1
   113    36    66    1
   114    37    52    1
   115    37    67    1
   116    38    53    1
   117    38    68    1
   118    42    48    1
   119    42    72    1
   120    43    44    2
   121    60    73    1
   122    61    74    1
   123    39    69    1
   124    39    57    1
   125    40    70    1
   126    40    50    1
   127    41    71    1
   128    41    49    1
