@<TRIPOS>MOLECULE
*****
 123 128 0 0 0
SMALL
GASTEIGER

@<TRIPOS>ATOM
     1 C         2.460335   3.289109   -2.517906 C.3        1 UNL1     0.0009
     2 C         2.447095   3.807754   -4.297756 C.2        1 UNL1     -0.0787
     3 C         3.114459   3.923538   -5.577313 C.2        1 UNL1     -0.0649
     4 C         2.46069   4.448421   -7.048177 C.2        1 UNL1     -0.0542
     5 C         2.614731   4.438872   -8.456459 C.2        1 UNL1     0.0115
     6 C         3.58583   4.071013   -9.611867 C.3        1 UNL1     -0.0348
     7 C         1.353086   4.806497   -9.378464 C.2        1 UNL1     0.2441
     8 O         1.217272   5.896735   -9.916479 O.2        1 UNL1     -0.2702
     9 N         0.548156   3.711834   -9.738951 N.am        1 UNL1     -0.2772
     10 C         -0.419373   3.492612   -8.785456 C.2        1 UNL1     0.1049
     11 C         -0.048625   2.788991   -7.731091 C.2        1 UNL1     0.0801
     12 C         -2.176921   4.656585   -7.438784 C.ar        1 UNL1     0.0753
     13 C         -1.602003   4.026864   -6.289207 C.ar        1 UNL1     0.0305
     14 C         -0.601365   2.969663   -6.416095 C.2        1 UNL1     0.0924
     15 N         1.065443   2.066439   -7.523012 N.pl3        1 UNL1     -0.3170
     16 C         0.903162   1.356162   -6.282276 C.3        1 UNL1     0.1275
     17 N         -0.039844   2.215166   -5.475693 N.2        1 UNL1     -0.2557
     18 C         0.143382   0.070234   -6.59344 C.3        1 UNL1     0.0016
     19 C         0.904858   -0.698173   -7.661754 C.3        1 UNL1     0.0026
     20 N         2.243199   -0.987351   -7.165522 N.3        1 UNL1     -0.3018
     21 C         3.030642   0.185842   -6.780918 C.3        1 UNL1     0.0026
     22 C         2.249257   0.94028   -5.703813 C.3        1 UNL1     0.0016
     23 C         2.945226   -1.964694   -7.97336 C.3        1 UNL1     0.0012
     24 C         2.319827   -3.357506   -7.798128 C.3        1 UNL1     -0.0339
     25 C         3.382212   -4.465732   -7.883144 C.3        1 UNL1     -0.0615
     26 C         1.548697   -3.421444   -6.491204 C.3        1 UNL1     -0.0615
     27 C         -3.215478   5.576361   -7.314168 C.ar        1 UNL1     0.1347
     28 C         -3.786665   5.915097   -6.100474 C.ar        1 UNL1     0.0342
     29 C         -3.172041   5.319737   -4.978445 C.ar        1 UNL1     0.1435
     30 C         -2.107234   4.4242   -5.085305 C.ar        1 UNL1     0.0774
     31 O         -3.682564   5.463841   -3.736025 O.3        1 UNL1     -0.4436
     32 C         -3.112789   4.383098   -2.982218 C.3        1 UNL1     0.3143
     33 C         -1.845297   4.008243   -3.723272 C.2        1 UNL1     0.2504
     34 C         -5.058195   6.694554   -5.911373 C.3        1 UNL1     -0.0327
     35 O         -2.712445   4.913734   -1.712808 O.2        1 UNL1     -0.4528
     36 C         -3.026914   2.049665   0.758286 C.3        1 UNL1     0.0854
     37 C         -2.345032   0.627831   0.727537 C.3        1 UNL1     0.0236
     38 C         -1.510178   0.250049   2.043608 C.3        1 UNL1     0.1131
     39 C         -0.43204   1.261389   2.606705 C.3        1 UNL1     0.0200
     40 C         0.617548   2.040799   1.570691 C.3        1 UNL1     0.0661
     41 C         1.553808   1.302606   0.364002 C.3        1 UNL1     0.0091
     42 C         2.104137   1.933974   -1.268148 C.3        1 UNL1     0.0661
     43 C         -1.69107   4.230872   -8.774815 C.2        1 UNL1     0.2131
     44 O         -2.330687   4.374922   -9.800912 O.2        1 UNL1     -0.2851
     45 O         -3.687743   6.177824   -8.478919 O.3        1 UNL1     -0.5056
     46 O         -0.837589   3.500949   -3.283919 O.2        1 UNL1     -0.2836
     47 C         3.298836   4.284977   -1.672244 C.3        1 UNL1     -0.0566
     48 O         3.511277   1.50179   -1.088448 O.3        1 UNL1     -0.3909
     49 C         1.044961   -0.104581   0.144014 C.3        1 UNL1     -0.0577
     50 O         0.039426   3.230826   1.073365 O.3        1 UNL1     -0.3910
     51 O         -2.680822   2.875455   1.847195 O.3        1 UNL1     -0.3753
     52 C         -1.850827   0.250473   -0.707145 C.3        1 UNL1     -0.0564
     53 O         -1.17351   -1.209096   2.142991 O.3        1 UNL1     -0.4608
     54 C         -0.000744   -1.723051   2.631255 C.2        1 UNL1     0.3042
     55 O         0.446494   -2.856433   2.46019 O.2        1 UNL1     -0.2512
     56 C         0.814063   -0.728808   3.408612 C.3        1 UNL1     0.0332
     57 C         -1.137536   2.132688   3.747445 C.3        1 UNL1     -0.0567
     58 C         -4.113075   3.207637   -3.078392 C.3        1 UNL1     0.0210
     59 C         -3.710319   3.047343   2.820055 C.3        1 UNL1     0.0372
     60 C         -2.840244   2.863385   -0.473857 C.2        1 UNL1     -0.0208
     61 C         -2.521292   4.150113   -0.619954 C.2        1 UNL1     0.0882
     62 H         1.415349   3.611624   -2.436046 H        1 UNL1     0.0365
     63 H         1.465769   4.282143   -4.364281 H        1 UNL1     0.0576
     64 H         4.110112   3.50619   -5.743456 H        1 UNL1     0.0615
     65 H         1.513962   4.914061   -6.761179 H        1 UNL1     0.0622
     66 H         -4.103739   1.838097   0.819397 H        1 UNL1     0.0645
     67 H         -3.191833   -0.077114   0.794916 H        1 UNL1     0.0362
     68 H         -2.3245   0.24947   2.78415 H        1 UNL1     0.0741
     69 H         0.238742   0.724583   3.264199 H        1 UNL1     0.0359
     70 H         1.379904   2.385464   2.295316 H        1 UNL1     0.0600
     71 H         2.484918   1.110325   0.93235 H        1 UNL1     0.0348
     72 H         1.834223   2.820119   -0.67552 H        1 UNL1     0.0602
     73 H         -3.129196   2.289067   -1.318791 H        1 UNL1     0.0628
     74 H         -2.159405   4.790939   0.184793 H        1 UNL1     0.1022
     75 H         4.610886   4.460971   -9.401562 H        1 UNL1     0.0279
     76 H         3.767219   3.010908   -9.774177 H        1 UNL1     0.0279
     77 H         3.344991   4.589878   -10.551269 H        1 UNL1     0.0279
     78 H         1.119209   2.87109   -9.794854 H        1 UNL1     0.1553
     79 H         1.665882   1.744061   -8.259544 H        1 UNL1     0.1484
     80 H         0.042564   -0.517154   -5.672801 H        1 UNL1     0.0317
     81 H         -0.872839   0.289796   -6.938026 H        1 UNL1     0.0317
     82 H         0.945844   -0.143637   -8.610818 H        1 UNL1     0.0428
     83 H         0.344842   -1.610397   -7.869794 H        1 UNL1     0.0428
     84 H         3.999933   -0.062591   -6.337558 H        1 UNL1     0.0428
     85 H         3.2862   0.809118   -7.648981 H        1 UNL1     0.0428
     86 H         2.90989   1.711576   -5.353592 H        1 UNL1     0.0317
     87 H         2.114592   0.301816   -4.822152 H        1 UNL1     0.0317
     88 H         2.85034   -1.668948   -9.026368 H        1 UNL1     0.0429
     89 H         4.017405   -1.979703   -7.73888 H        1 UNL1     0.0429
     90 H         1.580097   -3.521384   -8.590691 H        1 UNL1     0.0308
     91 H         4.262358   -4.219958   -7.281446 H        1 UNL1     0.0233
     92 H         2.972281   -5.420539   -7.54564 H        1 UNL1     0.0233
     93 H         3.733787   -4.629412   -8.909028 H        1 UNL1     0.0233
     94 H         1.436539   -4.462445   -6.169375 H        1 UNL1     0.0233
     95 H         2.092771   -2.883727   -5.709664 H        1 UNL1     0.0233
     96 H         0.552446   -2.982209   -6.593797 H        1 UNL1     0.0233
     97 H         -5.800616   6.133519   -5.351658 H        1 UNL1     0.0280
     98 H         -4.894874   7.622412   -5.347758 H        1 UNL1     0.0280
     99 H         -5.485779   6.947547   -6.895376 H        1 UNL1     0.0280
     100 H         -3.017237   6.531813   -9.036356 H        1 UNL1     0.2922
     101 H         2.634245   4.928584   -1.096271 H        1 UNL1     0.0236
     102 H         4.010229   4.858218   -2.265792 H        1 UNL1     0.0236
     103 H         3.914461   3.769982   -0.915951 H        1 UNL1     0.0236
     104 H         3.663094   0.738355   -1.679285 H        1 UNL1     0.2098
     105 H         1.4541   -0.597959   -0.734049 H        1 UNL1     0.0234
     106 H         1.120449   -0.757258   1.013635 H        1 UNL1     0.0234
     107 H         -0.0   0.0   0.0 H        1 UNL1     0.0234
     108 H         -0.780561   2.981378   0.605213 H        1 UNL1     0.2098
     109 H         -2.674337   0.210862   -1.433764 H        1 UNL1     0.0234
     110 H         -1.064581   0.915532   -1.080314 H        1 UNL1     0.0234
     111 H         -1.388676   -0.745501   -0.727082 H        1 UNL1     0.0234
     112 H         1.874235   -0.994652   3.35657 H        1 UNL1     0.0342
     113 H         0.649965   0.291924   3.066528 H        1 UNL1     0.0342
     114 H         0.505163   -0.78065   4.46173 H        1 UNL1     0.0342
     115 H         -2.162268   2.415824   3.470054 H        1 UNL1     0.0234
     116 H         -1.185464   1.63684   4.718983 H        1 UNL1     0.0234
     117 H         -0.674709   3.123861   3.893425 H        1 UNL1     0.0234
     118 H         -4.611985   3.007835   -2.113937 H        1 UNL1     0.0309
     119 H         -4.873892   3.353127   -3.85182 H        1 UNL1     0.0309
     120 H         -3.622456   2.256129   -3.310841 H        1 UNL1     0.0309
     121 H         -3.535242   3.999224   3.320682 H        1 UNL1     0.0524
     122 H         -4.713486   3.091547   2.364271 H        1 UNL1     0.0524
     123 H         -3.685943   2.234788   3.540648 H        1 UNL1     0.0524
@<TRIPOS>BOND
     1     1     2    1
     2     1    42    1
     3     2     3    2
     4     3     4    1
     5     4     5    2
     6     5     7    1
     7     6    75    1
     8     6    76    1
     9     6    77    1
    10     7     9   am
    11     9    10    1
    12    10    11    2
    13    10    43    1
    14    11    14    1
    15    11    15    1
    16    12    13   ar
    17    12    27   ar
    18    12    43    1
    19    13    14    1
    20    13    30   ar
    21    14    17    2
    22    15    16    1
    23    16    17    1
    24    16    18    1
    25    16    22    1
    26    18    19    1
    27    19    20    1
    28    20    21    1
    29    21    22    1
    30    23    24    1
    31    23    88    1
    32    23    89    1
    33    24    25    1
    34    24    26    1
    35    24    90    1
    36    25    91    1
    37    25    92    1
    38    25    93    1
    39    26    94    1
    40    26    95    1
    41    26    96    1
    42    27    28   ar
    43    28    29   ar
    44    29    30   ar
    45    29    31    1
    46    30    33    1
    47    31    32    1
    48    32    33    1
    49    32    35    1
    50    34    97    1
    51    34    98    1
    52    34    99    1
    53    35    61    1
    54    36    37    1
    55    36    60    1
    56    37    38    1
    57    38    39    1
    58    39    40    1
    59    40    41    1
    60    41    42    1
    61    45   100    1
    62    47   101    1
    63    47   102    1
    64    47   103    1
    65    48   104    1
    66    49   105    1
    67    49   106    1
    68    49   107    1
    69    50   108    1
    70    51    59    1
    71    52   109    1
    72    52   110    1
    73    52   111    1
    74    53    54    1
    75    54    55    2
    76    54    56    1
    77    56   112    1
    78    56   113    1
    79    56   114    1
    80    57   115    1
    81    57   116    1
    82    57   117    1
    83    58   118    1
    84    58   119    1
    85    58   120    1
    86    59   121    1
    87    59   122    1
    88    59   123    1
    89    60    61    2
    90     1    47    1
    91     1    62    1
    92     2    63    1
    93     3    64    1
    94     4    65    1
    95     5     6    1
    96     7     8    2
    97     9    78    1
    98    15    79    1
    99    18    80    1
   100    18    81    1
   101    19    82    1
   102    19    83    1
   103    20    23    1
   104    21    84    1
   105    21    85    1
   106    22    86    1
   107    22    87    1
   108    27    45    1
   109    28    34    1
   110    32    58    1
   111    33    46    2
   112    36    51    1
   113    36    66    1
   114    37    52    1
   115    37    67    1
   116    38    53    1
   117    38    68    1
   118    42    48    1
   119    42    72    1
   120    43    44    2
   121    60    73    1
   122    61    74    1
   123    39    69    1
   124    39    57    1
   125    40    70    1
   126    40    50    1
   127    41    71    1
   128    41    49    1
