@<TRIPOS>MOLECULE
*****
 123 128 0 0 0
SMALL
GASTEIGER

@<TRIPOS>ATOM
     1 C         5.160872   1.769627   0.482796 C.3        1 UNL1     0.0009
     2 C         6.598285   2.56705   -0.374524 C.2        1 UNL1     -0.0787
     3 C         7.882647   2.462566   -1.03448 C.2        1 UNL1     -0.0649
     4 C         8.759379   3.688846   -1.805152 C.2        1 UNL1     -0.0542
     5 C         9.78178   3.970455   -2.744551 C.2        1 UNL1     0.0115
     6 C         10.914522   3.335435   -3.597175 C.3        1 UNL1     -0.0348
     7 C         9.875256   5.444928   -3.372391 C.2        1 UNL1     0.2441
     8 O         10.695703   6.274218   -3.004054 O.2        1 UNL1     -0.2702
     9 N         9.128431   5.632731   -4.548458 N.am        1 UNL1     -0.2772
     10 C         7.843657   6.020525   -4.244661 C.2        1 UNL1     0.1049
     11 C         6.999452   5.051226   -3.941345 C.2        1 UNL1     0.0801
     12 C         6.536311   7.644166   -2.861921 C.ar        1 UNL1     0.0753
     13 C         5.778722   6.520892   -2.400487 C.ar        1 UNL1     0.0305
     14 C         5.901254   5.206203   -3.026293 C.2        1 UNL1     0.0924
     15 N         7.1261   3.720396   -4.080548 N.pl3        1 UNL1     -0.3170
     16 C         5.856772   3.122489   -3.761852 C.3        1 UNL1     0.1275
     17 N         5.214573   4.090254   -2.798143 N.2        1 UNL1     -0.2557
     18 C         5.008022   3.160776   -5.029077 C.3        1 UNL1     0.0016
     19 C         5.768487   2.462264   -6.145036 C.3        1 UNL1     0.0026
     20 N         6.040954   1.090685   -5.738143 N.3        1 UNL1     -0.3018
     21 C         6.800561   0.95049   -4.494072 C.3        1 UNL1     0.0026
     22 C         6.01624   1.655254   -3.385901 C.3        1 UNL1     0.0016
     23 C         6.49134   0.256189   -6.834232 C.3        1 UNL1     0.0012
     24 C         5.339861   -0.010727   -7.816377 C.3        1 UNL1     -0.0339
     25 C         5.366692   0.97536   -8.995771 C.3        1 UNL1     -0.0615
     26 C         5.384697   -1.45244   -8.292015 C.3        1 UNL1     -0.0615
     27 C         6.326507   8.919069   -2.341611 C.ar        1 UNL1     0.1347
     28 C         5.363524   9.20007   -1.38885 C.ar        1 UNL1     0.0342
     29 C         4.663404   8.070605   -0.914185 C.ar        1 UNL1     0.1435
     30 C         4.887913   6.78191   -1.400066 C.ar        1 UNL1     0.0774
     31 O         3.619257   8.193864   -0.06591 O.3        1 UNL1     -0.4436
     32 C         2.901304   6.957167   -0.192393 C.3        1 UNL1     0.3143
     33 C         3.91899   5.959096   -0.706574 C.2        1 UNL1     0.2504
     34 C         4.911618   10.571276   -0.969716 C.3        1 UNL1     -0.0327
     35 O         2.537402   6.538818   1.128899 O.2        1 UNL1     -0.4528
     36 C         -0.699204   4.592354   0.749759 C.3        1 UNL1     0.0854
     37 C         -0.998183   3.317954   -0.130036 C.3        1 UNL1     0.0236
     38 C         -1.598061   2.066978   0.674296 C.3        1 UNL1     0.1131
     39 C         -0.875278   1.557101   1.985738 C.3        1 UNL1     0.0200
     40 C         0.786144   1.416623   2.034539 C.3        1 UNL1     0.0661
     41 C         1.751444   0.633332   0.880303 C.3        1 UNL1     0.0091
     42 C         3.459954   0.992162   0.316708 C.3        1 UNL1     0.0661
     43 C         7.490649   7.422616   -3.976558 C.2        1 UNL1     0.2131
     44 O         7.890576   8.311143   -4.706842 O.2        1 UNL1     -0.2851
     45 O         7.137583   9.949522   -2.812525 O.3        1 UNL1     -0.5056
     46 O         3.937704   4.757653   -0.558122 O.2        1 UNL1     -0.2836
     47 C         5.55354   1.362322   1.928443 C.3        1 UNL1     -0.0566
     48 O         3.911947   -0.416388   0.42065 O.3        1 UNL1     -0.3909
     49 C         0.92203   0.380373   -0.358882 C.3        1 UNL1     -0.0577
     50 O         1.381821   2.64171   2.411439 O.3        1 UNL1     -0.3910
     51 O         -0.827454   4.42275   2.143394 O.3        1 UNL1     -0.3753
     52 C         0.050545   3.143414   -1.276619 C.3        1 UNL1     -0.0564
     53 O         -2.194915   1.013316   -0.212207 O.3        1 UNL1     -0.4608
     54 C         -2.41451   -0.292316   0.141394 C.2        1 UNL1     0.3042
     55 O         -1.837999   -1.290009   -0.289978 O.2        1 UNL1     -0.2512
     56 C         -3.446885   -0.457761   1.22007 C.3        1 UNL1     0.0332
     57 C         -1.60228   2.242568   3.234649 C.3        1 UNL1     -0.0567
     58 C         1.829106   7.183471   -1.283588 C.3        1 UNL1     0.0210
     59 C         -1.177116   5.605127   2.861437 C.3        1 UNL1     0.0372
     60 C         0.6289   5.221545   0.514345 C.2        1 UNL1     -0.0208
     61 C         1.537773   5.67191   1.380292 C.2        1 UNL1     0.0882
     62 H         4.68208   2.753696   0.554051 H        1 UNL1     0.0365
     63 H         6.328921   3.621563   -0.285562 H        1 UNL1     0.0576
     64 H         8.343576   1.493808   -1.239814 H        1 UNL1     0.0615
     65 H         8.268737   4.60792   -1.473405 H        1 UNL1     0.0622
     66 H         -1.44477   5.332262   0.426163 H        1 UNL1     0.0645
     67 H         -1.862491   3.616013   -0.748658 H        1 UNL1     0.0362
     68 H         -2.547446   2.506428   1.016457 H        1 UNL1     0.0741
     69 H         -1.204797   0.548092   2.194847 H        1 UNL1     0.0359
     70 H         0.896705   0.769578   2.925701 H        1 UNL1     0.0600
     71 H         1.796279   -0.381347   1.322314 H        1 UNL1     0.0348
     72 H         3.349515   1.494387   1.288762 H        1 UNL1     0.0602
     73 H         0.749742   5.403896   -0.524594 H        1 UNL1     0.0628
     74 H         1.517204   5.476901   2.453039 H        1 UNL1     0.1022
     75 H         10.961392   2.23264   -3.42782 H        1 UNL1     0.0279
     76 H         10.804279   3.402103   -4.677208 H        1 UNL1     0.0279
     77 H         11.917696   3.647579   -3.27174 H        1 UNL1     0.0279
     78 H         9.070469   4.755021   -5.060652 H        1 UNL1     0.1553
     79 H         7.794551   3.285182   -4.689395 H        1 UNL1     0.1484
     80 H         4.047389   2.670172   -4.83094 H        1 UNL1     0.0317
     81 H         4.779601   4.192836   -5.316004 H        1 UNL1     0.0317
     82 H         6.698577   2.99236   -6.397712 H        1 UNL1     0.0428
     83 H         5.146176   2.502659   -7.039545 H        1 UNL1     0.0428
     84 H         6.922583   -0.087492   -4.169244 H        1 UNL1     0.0428
     85 H         7.830025   1.319714   -4.599875 H        1 UNL1     0.0428
     86 H         6.530281   1.41961   -2.472544 H        1 UNL1     0.0317
     87 H         5.037639   1.176886   -3.257055 H        1 UNL1     0.0317
     88 H         7.287736   0.792323   -7.36678 H        1 UNL1     0.0429
     89 H         6.92524   -0.683179   -6.468043 H        1 UNL1     0.0429
     90 H         4.384951   0.10122   -7.289283 H        1 UNL1     0.0308
     91 H         6.318709   0.927248   -9.532848 H        1 UNL1     0.0233
     92 H         4.551109   0.766941   -9.692186 H        1 UNL1     0.0233
     93 H         5.23541   2.015455   -8.673585 H        1 UNL1     0.0233
     94 H         4.691556   -1.596116   -9.127927 H        1 UNL1     0.0233
     95 H         6.390894   -1.699239   -8.642187 H        1 UNL1     0.0233
     96 H         5.109533   -2.14534   -7.491926 H        1 UNL1     0.0233
     97 H         4.115945   10.530229   -0.231848 H        1 UNL1     0.0280
     98 H         5.7213   11.150303   -0.506682 H        1 UNL1     0.0280
     99 H         4.539367   11.121993   -1.849055 H        1 UNL1     0.0280
     100 H         6.669662   10.693799   -3.148269 H        1 UNL1     0.2922
     101 H         4.690186   0.93383   2.43704 H        1 UNL1     0.0236
     102 H         6.000268   2.177273   2.497014 H        1 UNL1     0.0236
     103 H         6.311894   0.561748   1.941617 H        1 UNL1     0.0236
     104 H         4.32889   -0.528432   1.297335 H        1 UNL1     0.2098
     105 H         0.70894   1.270129   -0.946027 H        1 UNL1     0.0234
     106 H         1.295677   -0.416195   -1.002151 H        1 UNL1     0.0234
     107 H         0.0   -0.0   0.0 H        1 UNL1     0.0234
     108 H         1.183861   3.289186   1.707624 H        1 UNL1     0.2098
     109 H         1.074399   3.038269   -0.891419 H        1 UNL1     0.0234
     110 H         -0.177454   2.30582   -1.944599 H        1 UNL1     0.0234
     111 H         0.071597   4.016613   -1.942222 H        1 UNL1     0.0234
     112 H         -3.567615   -1.51849   1.460121 H        1 UNL1     0.0342
     113 H         -3.204293   0.119325   2.111116 H        1 UNL1     0.0342
     114 H         -4.407354   -0.088096   0.835345 H        1 UNL1     0.0342
     115 H         -2.671369   1.992016   3.272862 H        1 UNL1     0.0234
     116 H         -1.1683   1.978099   4.200965 H        1 UNL1     0.0234
     117 H         -1.643611   3.343485   3.169728 H        1 UNL1     0.0234
     118 H         0.925384   7.673958   -0.881449 H        1 UNL1     0.0309
     119 H         2.199752   7.759967   -2.137096 H        1 UNL1     0.0309
     120 H         1.444406   6.244343   -1.696081 H        1 UNL1     0.0309
     121 H         -0.374337   6.327762   2.71756 H        1 UNL1     0.0524
     122 H         -2.107271   6.063069   2.485753 H        1 UNL1     0.0524
     123 H         -1.295691   5.382001   3.917964 H        1 UNL1     0.0524
@<TRIPOS>BOND
     1     1     2    1
     2     1    42    1
     3     2     3    2
     4     3     4    1
     5     4     5    2
     6     5     7    1
     7     6    75    1
     8     6    76    1
     9     6    77    1
    10     7     9   am
    11     9    10    1
    12    10    11    2
    13    10    43    1
    14    11    14    1
    15    11    15    1
    16    12    13   ar
    17    12    27   ar
    18    12    43    1
    19    13    14    1
    20    13    30   ar
    21    14    17    2
    22    15    16    1
    23    16    17    1
    24    16    18    1
    25    16    22    1
    26    18    19    1
    27    19    20    1
    28    20    21    1
    29    21    22    1
    30    23    24    1
    31    23    88    1
    32    23    89    1
    33    24    25    1
    34    24    26    1
    35    24    90    1
    36    25    91    1
    37    25    92    1
    38    25    93    1
    39    26    94    1
    40    26    95    1
    41    26    96    1
    42    27    28   ar
    43    28    29   ar
    44    29    30   ar
    45    29    31    1
    46    30    33    1
    47    31    32    1
    48    32    33    1
    49    32    35    1
    50    34    97    1
    51    34    98    1
    52    34    99    1
    53    35    61    1
    54    36    37    1
    55    36    60    1
    56    37    38    1
    57    38    39    1
    58    39    40    1
    59    40    41    1
    60    41    42    1
    61    45   100    1
    62    47   101    1
    63    47   102    1
    64    47   103    1
    65    48   104    1
    66    49   105    1
    67    49   106    1
    68    49   107    1
    69    50   108    1
    70    51    59    1
    71    52   109    1
    72    52   110    1
    73    52   111    1
    74    53    54    1
    75    54    55    2
    76    54    56    1
    77    56   112    1
    78    56   113    1
    79    56   114    1
    80    57   115    1
    81    57   116    1
    82    57   117    1
    83    58   118    1
    84    58   119    1
    85    58   120    1
    86    59   121    1
    87    59   122    1
    88    59   123    1
    89    60    61    2
    90     1    47    1
    91     1    62    1
    92     2    63    1
    93     3    64    1
    94     4    65    1
    95     5     6    1
    96     7     8    2
    97     9    78    1
    98    15    79    1
    99    18    80    1
   100    18    81    1
   101    19    82    1
   102    19    83    1
   103    20    23    1
   104    21    84    1
   105    21    85    1
   106    22    86    1
   107    22    87    1
   108    27    45    1
   109    28    34    1
   110    32    58    1
   111    33    46    2
   112    36    51    1
   113    36    66    1
   114    37    52    1
   115    37    67    1
   116    38    53    1
   117    38    68    1
   118    42    48    1
   119    42    72    1
   120    43    44    2
   121    60    73    1
   122    61    74    1
   123    39    69    1
   124    39    57    1
   125    40    70    1
   126    40    50    1
   127    41    71    1
   128    41    49    1
