@<TRIPOS>MOLECULE
*****
 123 128 0 0 0
SMALL
GASTEIGER

@<TRIPOS>ATOM
     1 C         4.788709   2.29581   1.345094 C.3        1 UNL1     0.0009
     2 C         6.416724   2.059914   2.200055 C.2        1 UNL1     -0.0787
     3 C         7.277294   2.274744   3.344307 C.2        1 UNL1     -0.0649
     4 C         8.81895   1.632469   3.622043 C.2        1 UNL1     -0.0542
     5 C         9.794961   1.340422   4.606517 C.2        1 UNL1     0.0115
     6 C         10.183088   1.558742   6.09481 C.3        1 UNL1     -0.0348
     7 C         10.962471   0.295548   4.257023 C.2        1 UNL1     0.2441
     8 O         12.100242   0.640788   3.969251 O.2        1 UNL1     -0.2702
     9 N         10.662643   -1.044695   4.55703 N.am        1 UNL1     -0.2772
     10 C         10.03019   -1.645128   3.492697 C.2        1 UNL1     0.1049
     11 C         8.72835   -1.443107   3.399851 C.2        1 UNL1     0.0801
     12 C         10.193898   -1.978147   1.018908 C.ar        1 UNL1     0.0753
     13 C         8.830383   -1.548429   0.949783 C.ar        1 UNL1     0.0305
     14 C         8.015061   -1.393477   2.152401 C.2        1 UNL1     0.0924
     15 N         7.870175   -0.916865   4.290432 N.pl3        1 UNL1     -0.3170
     16 C         6.539572   -1.080048   3.767822 C.3        1 UNL1     0.1275
     17 N         6.722258   -1.104025   2.269899 N.2        1 UNL1     -0.2557
     18 C         6.068195   -2.477258   4.159368 C.3        1 UNL1     0.0016
     19 C         6.171415   -2.61993   5.669526 C.3        1 UNL1     0.0026
     20 N         5.346668   -1.594636   6.293699 N.3        1 UNL1     -0.3018
     21 C         5.684766   -0.21737   5.928738 C.3        1 UNL1     0.0026
     22 C         5.570062   -0.095443   4.408254 C.3        1 UNL1     0.0016
     23 C         5.13614   -1.824619   7.709125 C.3        1 UNL1     0.0012
     24 C         4.216004   -3.036089   7.92695 C.3        1 UNL1     -0.0339
     25 C         3.323996   -2.849313   9.165293 C.3        1 UNL1     -0.0615
     26 C         3.391463   -3.295027   6.678006 C.3        1 UNL1     -0.0615
     27 C         10.927617   -2.239746   -0.135796 C.ar        1 UNL1     0.1347
     28 C         10.395805   -2.145824   -1.409533 C.ar        1 UNL1     0.0342
     29 C         9.066712   -1.674011   -1.455008 C.ar        1 UNL1     0.1435
     30 C         8.330858   -1.373345   -0.308126 C.ar        1 UNL1     0.0774
     31 O         8.372755   -1.63279   -2.613339 O.3        1 UNL1     -0.4436
     32 C         6.996454   -1.572281   -2.209598 C.3        1 UNL1     0.3143
     33 C         7.020492   -1.007225   -0.803772 C.2        1 UNL1     0.2504
     34 C         11.038131   -2.648383   -2.672446 C.3        1 UNL1     -0.0327
     35 O         6.351449   -0.598509   -3.039651 O.2        1 UNL1     -0.4528
     36 C         2.7392   -1.722988   -3.34834 C.3        1 UNL1     0.0854
     37 C         1.678744   -1.991473   -2.212175 C.3        1 UNL1     0.0236
     38 C         0.308698   -1.170981   -2.35884 C.3        1 UNL1     0.1131
     39 C         0.351117   0.394315   -2.583163 C.3        1 UNL1     0.0200
     40 C         1.397246   1.346467   -1.699161 C.3        1 UNL1     0.0661
     41 C         1.584106   1.316824   -0.013393 C.3        1 UNL1     0.0091
     42 C         3.064307   1.625422   1.025442 C.3        1 UNL1     0.0661
     43 C         10.77376   -2.22228   2.362938 C.2        1 UNL1     0.2131
     44 O         11.7399   -2.936908   2.559454 O.2        1 UNL1     -0.2851
     45 O         12.26218   -2.609579   0.01784 O.3        1 UNL1     -0.5056
     46 O         6.160325   -0.377317   -0.230029 O.2        1 UNL1     -0.2836
     47 C         4.666792   3.747391   0.808408 C.3        1 UNL1     -0.0566
     48 O         2.358559   2.533348   1.961768 O.3        1 UNL1     -0.3909
     49 C         0.915018   0.074022   0.529983 C.3        1 UNL1     -0.0577
     50 O         2.662988   1.414326   -2.324472 O.3        1 UNL1     -0.3910
     51 O         2.430914   -0.679439   -4.244664 O.3        1 UNL1     -0.3753
     52 C         2.359961   -2.230693   -0.825212 C.3        1 UNL1     -0.0564
     53 O         -0.799041   -1.691621   -1.490408 O.3        1 UNL1     -0.4608
     54 C         -1.732858   -0.922681   -0.846479 C.2        1 UNL1     0.3042
     55 O         -1.750064   -0.608664   0.343032 O.2        1 UNL1     -0.2512
     56 C         -2.800702   -0.385677   -1.756451 C.3        1 UNL1     0.0332
     57 C         0.252381   0.65876   -4.157486 C.3        1 UNL1     -0.0567
     58 C         6.493023   -3.033345   -2.151462 C.3        1 UNL1     0.0210
     59 C         2.056426   -1.105002   -5.554061 C.3        1 UNL1     0.0372
     60 C         4.127127   -1.480778   -2.868598 C.2        1 UNL1     -0.0208
     61 C         5.019151   -0.558686   -3.232995 C.2        1 UNL1     0.0882
     62 H         5.158812   1.684615   0.513123 H        1 UNL1     0.0365
     63 H         6.981184   1.539946   1.42321 H        1 UNL1     0.0576
     64 H         6.915215   2.770403   4.247816 H        1 UNL1     0.0615
     65 H         9.115916   1.236702   2.647024 H        1 UNL1     0.0622
     66 H         2.776935   -2.662078   -3.918193 H        1 UNL1     0.0645
     67 H         1.337662   -3.02397   -2.402366 H        1 UNL1     0.0362
     68 H         -0.057118   -1.59192   -3.307793 H        1 UNL1     0.0741
     69 H         -0.616249   0.808282   -2.331684 H        1 UNL1     0.0359
     70 H         0.946708   2.341512   -1.87794 H        1 UNL1     0.0600
     71 H         0.855557   2.099538   0.275627 H        1 UNL1     0.0348
     72 H         3.280327   2.079213   0.047319 H        1 UNL1     0.0602
     73 H         4.414574   -2.269449   -2.218505 H        1 UNL1     0.0628
     74 H         4.789679   0.312205   -3.847918 H        1 UNL1     0.1022
     75 H         10.078776   2.635122   6.373306 H        1 UNL1     0.0279
     76 H         9.560185   1.063495   6.836289 H        1 UNL1     0.0279
     77 H         11.252959   1.388377   6.284687 H        1 UNL1     0.0279
     78 H         10.028157   -1.083561   5.35201 H        1 UNL1     0.1553
     79 H         8.063199   -0.841074   5.272231 H        1 UNL1     0.1484
     80 H         5.036845   -2.616646   3.813457 H        1 UNL1     0.0317
     81 H         6.671233   -3.246483   3.66511 H        1 UNL1     0.0317
     82 H         7.213797   -2.553648   6.014431 H        1 UNL1     0.0428
     83 H         5.832219   -3.62382   5.926822 H        1 UNL1     0.0428
     84 H         5.001144   0.527756   6.347378 H        1 UNL1     0.0428
     85 H         6.670145   0.077739   6.315074 H        1 UNL1     0.0428
     86 H         5.692766   0.949521   4.191497 H        1 UNL1     0.0317
     87 H         4.539914   -0.300874   4.092518 H        1 UNL1     0.0317
     88 H         6.109904   -2.038187   8.16898 H        1 UNL1     0.0429
     89 H         4.736387   -0.929809   8.203378 H        1 UNL1     0.0429
     90 H         4.830585   -3.932561   8.07131 H        1 UNL1     0.0308
     91 H         2.872179   -1.853002   9.183394 H        1 UNL1     0.0233
     92 H         2.532816   -3.602373   9.188598 H        1 UNL1     0.0233
     93 H         3.881816   -2.962731   10.102741 H        1 UNL1     0.0233
     94 H         2.493093   -3.868539   6.930694 H        1 UNL1     0.0233
     95 H         3.072838   -2.346236   6.237282 H        1 UNL1     0.0233
     96 H         3.961679   -3.856597   5.932714 H        1 UNL1     0.0233
     97 H         10.416364   -3.377292   -3.183651 H        1 UNL1     0.0280
     98 H         11.213396   -1.842195   -3.396738 H        1 UNL1     0.0280
     99 H         12.002444   -3.125037   -2.431621 H        1 UNL1     0.0280
     100 H         12.759943   -2.051221   0.588884 H        1 UNL1     0.2922
     101 H         4.815443   3.753927   -0.271183 H        1 UNL1     0.0236
     102 H         5.327402   4.44914   1.316469 H        1 UNL1     0.0236
     103 H         3.654101   4.159051   0.953965 H        1 UNL1     0.0236
     104 H         1.409433   2.516649   1.729708 H        1 UNL1     0.2098
     105 H         1.471363   -0.844942   0.363253 H        1 UNL1     0.0234
     106 H         0.603476   0.143227   1.572134 H        1 UNL1     0.0234
     107 H         -0.0   0.0   0.0 H        1 UNL1     0.0234
     108 H         3.2902   1.779454   -1.670977 H        1 UNL1     0.2098
     109 H         3.026659   -3.104273   -0.834377 H        1 UNL1     0.0234
     110 H         2.90729   -1.35589   -0.457934 H        1 UNL1     0.0234
     111 H         1.619167   -2.430376   -0.039529 H        1 UNL1     0.0234
     112 H         -3.499006   0.233971   -1.185704 H        1 UNL1     0.0342
     113 H         -2.383004   0.168232   -2.59583 H        1 UNL1     0.0342
     114 H         -3.362529   -1.236578   -2.1657 H        1 UNL1     0.0342
     115 H         -0.302967   1.579613   -4.382892 H        1 UNL1     0.0234
     116 H         1.220452   0.728404   -4.657523 H        1 UNL1     0.0234
     117 H         -0.354049   -0.092186   -4.692522 H        1 UNL1     0.0234
     118 H         5.768968   -3.254665   -2.955059 H        1 UNL1     0.0309
     119 H         7.303151   -3.768631   -2.186824 H        1 UNL1     0.0309
     120 H         5.928851   -3.247492   -1.237155 H        1 UNL1     0.0309
     121 H         0.969963   -1.185328   -5.576488 H        1 UNL1     0.0524
     122 H         2.35175   -0.379467   -6.330218 H        1 UNL1     0.0524
     123 H         2.508132   -2.066717   -5.780243 H        1 UNL1     0.0524
@<TRIPOS>BOND
     1     1     2    1
     2     1    42    1
     3     2     3    2
     4     3     4    1
     5     4     5    2
     6     5     7    1
     7     6    75    1
     8     6    76    1
     9     6    77    1
    10     7     9   am
    11     9    10    1
    12    10    11    2
    13    10    43    1
    14    11    14    1
    15    11    15    1
    16    12    13   ar
    17    12    27   ar
    18    12    43    1
    19    13    14    1
    20    13    30   ar
    21    14    17    2
    22    15    16    1
    23    16    17    1
    24    16    18    1
    25    16    22    1
    26    18    19    1
    27    19    20    1
    28    20    21    1
    29    21    22    1
    30    23    24    1
    31    23    88    1
    32    23    89    1
    33    24    25    1
    34    24    26    1
    35    24    90    1
    36    25    91    1
    37    25    92    1
    38    25    93    1
    39    26    94    1
    40    26    95    1
    41    26    96    1
    42    27    28   ar
    43    28    29   ar
    44    29    30   ar
    45    29    31    1
    46    30    33    1
    47    31    32    1
    48    32    33    1
    49    32    35    1
    50    34    97    1
    51    34    98    1
    52    34    99    1
    53    35    61    1
    54    36    37    1
    55    36    60    1
    56    37    38    1
    57    38    39    1
    58    39    40    1
    59    40    41    1
    60    41    42    1
    61    45   100    1
    62    47   101    1
    63    47   102    1
    64    47   103    1
    65    48   104    1
    66    49   105    1
    67    49   106    1
    68    49   107    1
    69    50   108    1
    70    51    59    1
    71    52   109    1
    72    52   110    1
    73    52   111    1
    74    53    54    1
    75    54    55    2
    76    54    56    1
    77    56   112    1
    78    56   113    1
    79    56   114    1
    80    57   115    1
    81    57   116    1
    82    57   117    1
    83    58   118    1
    84    58   119    1
    85    58   120    1
    86    59   121    1
    87    59   122    1
    88    59   123    1
    89    60    61    2
    90     1    47    1
    91     1    62    1
    92     2    63    1
    93     3    64    1
    94     4    65    1
    95     5     6    1
    96     7     8    2
    97     9    78    1
    98    15    79    1
    99    18    80    1
   100    18    81    1
   101    19    82    1
   102    19    83    1
   103    20    23    1
   104    21    84    1
   105    21    85    1
   106    22    86    1
   107    22    87    1
   108    27    45    1
   109    28    34    1
   110    32    58    1
   111    33    46    2
   112    36    51    1
   113    36    66    1
   114    37    52    1
   115    37    67    1
   116    38    53    1
   117    38    68    1
   118    42    48    1
   119    42    72    1
   120    43    44    2
   121    60    73    1
   122    61    74    1
   123    39    69    1
   124    39    57    1
   125    40    70    1
   126    40    50    1
   127    41    71    1
   128    41    49    1
