@<TRIPOS>MOLECULE
*****
 123 128 0 0 0
SMALL
GASTEIGER

@<TRIPOS>ATOM
     1 C         4.597242   0.867351   2.807902 C.3        1 UNL1     0.0009
     2 C         6.444954   0.964271   2.691265 C.2        1 UNL1     -0.0787
     3 C         7.751475   0.39837   2.953571 C.2        1 UNL1     -0.0649
     4 C         9.257532   0.973758   2.436773 C.2        1 UNL1     -0.0542
     5 C         10.613618   0.63416   2.207031 C.2        1 UNL1     0.0115
     6 C         11.687939   -0.466345   2.426226 C.3        1 UNL1     -0.0348
     7 C         11.504966   1.586001   1.270822 C.2        1 UNL1     0.2441
     8 O         12.316341   2.386116   1.715807 O.2        1 UNL1     -0.2702
     9 N         11.481708   1.25702   -0.0957 N.am        1 UNL1     -0.2772
     10 C         10.435611   1.892062   -0.724766 C.2        1 UNL1     0.1049
     11 C         9.256587   1.304513   -0.630367 C.2        1 UNL1     0.0801
     12 C         9.343645   4.126712   -0.991757 C.ar        1 UNL1     0.0753
     13 C         8.109569   3.473981   -0.67615 C.ar        1 UNL1     0.0305
     14 C         8.008142   2.017618   -0.614754 C.2        1 UNL1     0.0924
     15 N         8.937343   0.07321   -0.196194 N.pl3        1 UNL1     -0.3170
     16 C         7.538364   -0.136446   -0.459167 C.3        1 UNL1     0.1275
     17 N         6.938067   1.248064   -0.43684 N.2        1 UNL1     -0.2557
     18 C         7.417466   -0.627272   -1.898673 C.3        1 UNL1     0.0016
     19 C         8.2801   -1.868367   -2.063391 C.3        1 UNL1     0.0026
     20 N         7.823881   -2.883213   -1.12372 N.3        1 UNL1     -0.3018
     21 C         7.844861   -2.481204   0.284228 C.3        1 UNL1     0.0026
     22 C         6.968399   -1.235743   0.427532 C.3        1 UNL1     0.0016
     23 C         8.37409   -4.19537   -1.399688 C.3        1 UNL1     0.0012
     24 C         9.456344   -4.107765   -2.487258 C.3        1 UNL1     -0.0339
     25 C         9.465256   -5.363672   -3.374204 C.3        1 UNL1     -0.0615
     26 C         9.267829   -2.84443   -3.30898 C.3        1 UNL1     -0.0615
     27 C         9.405743   5.507102   -1.167213 C.ar        1 UNL1     0.1347
     28 C         8.297315   6.331569   -1.091764 C.ar        1 UNL1     0.0342
     29 C         7.102228   5.673255   -0.73183 C.ar        1 UNL1     0.1435
     30 C         7.031924   4.296183   -0.51747 C.ar        1 UNL1     0.0774
     31 O         5.916075   6.319784   -0.724822 O.3        1 UNL1     -0.4436
     32 C         4.93332   5.275233   -0.787893 C.3        1 UNL1     0.3143
     33 C         5.63139   4.041661   -0.251971 C.2        1 UNL1     0.2504
     34 C         8.240845   7.773698   -1.512687 C.3        1 UNL1     -0.0327
     35 O         3.898109   5.607408   0.145514 O.2        1 UNL1     -0.4528
     36 C         0.704612   4.122415   -1.270278 C.3        1 UNL1     0.0854
     37 C         0.384808   2.625363   -1.649859 C.3        1 UNL1     0.0236
     38 C         -0.91825   2.01269   -0.943873 C.3        1 UNL1     0.1131
     39 C         -1.09188   2.133314   0.623792 C.3        1 UNL1     0.0200
     40 C         0.196929   1.840835   1.641567 C.3        1 UNL1     0.0661
     41 C         1.213493   0.483694   1.59282 C.3        1 UNL1     0.0091
     42 C         2.993689   0.314982   2.002504 C.3        1 UNL1     0.0661
     43 C         10.538264   3.274877   -1.214295 C.2        1 UNL1     0.2131
     44 O         11.512707   3.634867   -1.849594 O.2        1 UNL1     -0.2851
     45 O         10.654045   6.068816   -1.427322 O.3        1 UNL1     -0.5056
     46 O         5.143528   3.076213   0.291863 O.2        1 UNL1     -0.2836
     47 C         4.131047   1.181305   4.254994 C.3        1 UNL1     -0.0566
     48 O         2.805181   -0.901948   2.828736 O.3        1 UNL1     -0.3909
     49 C         0.989975   -0.246818   0.28749 C.3        1 UNL1     -0.0577
     50 O         0.964445   3.012984   1.827868 O.3        1 UNL1     -0.3910
     51 O         -0.078908   4.677042   -0.237846 O.3        1 UNL1     -0.3753
     52 C         1.688035   1.787257   -1.859921 C.3        1 UNL1     -0.0564
     53 O         -1.398816   0.737754   -1.573094 O.3        1 UNL1     -0.4608
     54 C         -1.923025   -0.333626   -0.898348 C.2        1 UNL1     0.3042
     55 O         -1.360696   -1.394249   -0.628712 O.2        1 UNL1     -0.2512
     56 C         -3.325665   -0.108819   -0.4097 C.3        1 UNL1     0.0332
     57 C         -1.99067   3.424653   0.911532 C.3        1 UNL1     -0.0567
     58 C         4.61988   5.059481   -2.286804 C.3        1 UNL1     0.0210
     59 C         -1.038095   5.642677   -0.66607 C.3        1 UNL1     0.0372
     60 C         2.126301   4.393131   -0.922894 C.2        1 UNL1     -0.0208
     61 C         2.651973   5.100895   0.077848 C.2        1 UNL1     0.0882
     62 H         4.53169   1.807515   2.247094 H        1 UNL1     0.0365
     63 H         6.568848   1.949289   2.236448 H        1 UNL1     0.0576
     64 H         7.867291   -0.59247   3.398464 H        1 UNL1     0.0615
     65 H         9.043338   1.987449   2.087436 H        1 UNL1     0.0622
     66 H         0.506237   4.689026   -2.190955 H        1 UNL1     0.0645
     67 H         0.058763   2.679627   -2.703097 H        1 UNL1     0.0362
     68 H         -1.687656   2.671738   -1.374213 H        1 UNL1     0.0741
     69 H         -1.821887   1.404642   0.950187 H        1 UNL1     0.0359
     70 H         -0.342411   1.708291   2.598962 H        1 UNL1     0.0600
     71 H         0.685154   -0.179263   2.305774 H        1 UNL1     0.0348
     72 H         2.655956   1.239532   2.492872 H        1 UNL1     0.0602
     73 H         2.751447   4.024924   -1.698048 H        1 UNL1     0.0628
     74 H         2.089434   5.463034   0.939034 H        1 UNL1     0.1022
     75 H         11.672993   -0.8236   3.484139 H        1 UNL1     0.0279
     76 H         11.558432   -1.389286   1.865443 H        1 UNL1     0.0279
     77 H         12.714684   -0.081121   2.341976 H        1 UNL1     0.0279
     78 H         11.34122   0.254702   -0.203869 H        1 UNL1     0.1553
     79 H         9.596065   -0.680399   -0.124839 H        1 UNL1     0.1484
     80 H         6.363886   -0.839996   -2.116583 H        1 UNL1     0.0317
     81 H         7.73306   0.148582   -2.604436 H        1 UNL1     0.0317
     82 H         9.347162   -1.644828   -1.917372 H        1 UNL1     0.0428
     83 H         8.18062   -2.200572   -3.097216 H        1 UNL1     0.0428
     84 H         7.423144   -3.231005   0.96081 H        1 UNL1     0.0428
     85 H         8.869791   -2.335827   0.652604 H        1 UNL1     0.0428
     86 H         6.89971   -1.049945   1.483349 H        1 UNL1     0.0317
     87 H         5.93521   -1.469901   0.1433 H        1 UNL1     0.0317
     88 H         8.83494   -4.573284   -0.477683 H        1 UNL1     0.0429
     89 H         7.586911   -4.906785   -1.680777 H        1 UNL1     0.0429
     90 H         10.438505   -4.010624   -2.009622 H        1 UNL1     0.0308
     91 H         8.4523   -5.641364   -3.680648 H        1 UNL1     0.0233
     92 H         10.078045   -5.203564   -4.264409 H        1 UNL1     0.0233
     93 H         9.89235   -6.234029   -2.861461 H        1 UNL1     0.0233
     94 H         9.751957   -2.953282   -4.285508 H        1 UNL1     0.0233
     95 H         8.202566   -2.664774   -3.478986 H        1 UNL1     0.0233
     96 H         9.696806   -1.973376   -2.80578 H        1 UNL1     0.0233
     97 H         7.232005   8.172744   -1.465424 H        1 UNL1     0.0280
     98 H         8.84954   8.418006   -0.864911 H        1 UNL1     0.0280
     99 H         8.602288   7.869914   -2.549604 H        1 UNL1     0.0280
     100 H         11.208684   5.550063   -1.983103 H        1 UNL1     0.2922
     101 H         3.711536   2.186276   4.296234 H        1 UNL1     0.0236
     102 H         4.913296   1.033813   4.998846 H        1 UNL1     0.0236
     103 H         3.308542   0.521249   4.577492 H        1 UNL1     0.0236
     104 H         1.972669   -0.792936   3.328746 H        1 UNL1     0.2098
     105 H         1.655462   0.056771   -0.516731 H        1 UNL1     0.0234
     106 H         0.969871   -1.333321   0.371359 H        1 UNL1     0.0234
     107 H         0.0   0.0   0.0 H        1 UNL1     0.0234
     108 H         1.812326   2.743577   2.230716 H        1 UNL1     0.2098
     109 H         2.310563   2.183322   -2.674355 H        1 UNL1     0.0234
     110 H         2.290878   1.693674   -0.950215 H        1 UNL1     0.0234
     111 H         1.461327   0.749097   -2.137001 H        1 UNL1     0.0234
     112 H         -3.675348   -0.990326   0.136206 H        1 UNL1     0.0342
     113 H         -3.407181   0.787843   0.202832 H        1 UNL1     0.0342
     114 H         -3.976427   0.025499   -1.284703 H        1 UNL1     0.0342
     115 H         -2.624934   3.291347   1.798734 H        1 UNL1     0.0234
     116 H         -1.416612   4.342497   1.053196 H        1 UNL1     0.0234
     117 H         -2.749883   3.614487   0.133393 H        1 UNL1     0.0234
     118 H         3.60374   5.400884   -2.551207 H        1 UNL1     0.0309
     119 H         5.343958   5.542026   -2.95093 H        1 UNL1     0.0309
     120 H         4.611116   4.000249   -2.566193 H        1 UNL1     0.0309
     121 H         -1.236099   6.306248   0.175253 H        1 UNL1     0.0524
     122 H         -0.664493   6.263239   -1.497551 H        1 UNL1     0.0524
     123 H         -1.954314   5.149515   -0.978204 H        1 UNL1     0.0524
@<TRIPOS>BOND
     1     1     2    1
     2     1    42    1
     3     2     3    2
     4     3     4    1
     5     4     5    2
     6     5     7    1
     7     6    75    1
     8     6    76    1
     9     6    77    1
    10     7     9   am
    11     9    10    1
    12    10    11    2
    13    10    43    1
    14    11    14    1
    15    11    15    1
    16    12    13   ar
    17    12    27   ar
    18    12    43    1
    19    13    14    1
    20    13    30   ar
    21    14    17    2
    22    15    16    1
    23    16    17    1
    24    16    18    1
    25    16    22    1
    26    18    19    1
    27    19    20    1
    28    20    21    1
    29    21    22    1
    30    23    24    1
    31    23    88    1
    32    23    89    1
    33    24    25    1
    34    24    26    1
    35    24    90    1
    36    25    91    1
    37    25    92    1
    38    25    93    1
    39    26    94    1
    40    26    95    1
    41    26    96    1
    42    27    28   ar
    43    28    29   ar
    44    29    30   ar
    45    29    31    1
    46    30    33    1
    47    31    32    1
    48    32    33    1
    49    32    35    1
    50    34    97    1
    51    34    98    1
    52    34    99    1
    53    35    61    1
    54    36    37    1
    55    36    60    1
    56    37    38    1
    57    38    39    1
    58    39    40    1
    59    40    41    1
    60    41    42    1
    61    45   100    1
    62    47   101    1
    63    47   102    1
    64    47   103    1
    65    48   104    1
    66    49   105    1
    67    49   106    1
    68    49   107    1
    69    50   108    1
    70    51    59    1
    71    52   109    1
    72    52   110    1
    73    52   111    1
    74    53    54    1
    75    54    55    2
    76    54    56    1
    77    56   112    1
    78    56   113    1
    79    56   114    1
    80    57   115    1
    81    57   116    1
    82    57   117    1
    83    58   118    1
    84    58   119    1
    85    58   120    1
    86    59   121    1
    87    59   122    1
    88    59   123    1
    89    60    61    2
    90     1    47    1
    91     1    62    1
    92     2    63    1
    93     3    64    1
    94     4    65    1
    95     5     6    1
    96     7     8    2
    97     9    78    1
    98    15    79    1
    99    18    80    1
   100    18    81    1
   101    19    82    1
   102    19    83    1
   103    20    23    1
   104    21    84    1
   105    21    85    1
   106    22    86    1
   107    22    87    1
   108    27    45    1
   109    28    34    1
   110    32    58    1
   111    33    46    2
   112    36    51    1
   113    36    66    1
   114    37    52    1
   115    37    67    1
   116    38    53    1
   117    38    68    1
   118    42    48    1
   119    42    72    1
   120    43    44    2
   121    60    73    1
   122    61    74    1
   123    39    69    1
   124    39    57    1
   125    40    70    1
   126    40    50    1
   127    41    71    1
   128    41    49    1
