@<TRIPOS>MOLECULE
*****
 123 128 0 0 0
SMALL
GASTEIGER

@<TRIPOS>ATOM
     1 C         4.972184   2.238288   0.528384 C.3        1 UNL1     0.0009
     2 C         6.359502   3.114972   -0.33406 C.2        1 UNL1     -0.0787
     3 C         7.67175   3.09329   -0.945274 C.2        1 UNL1     -0.0649
     4 C         8.457801   4.347607   -1.766961 C.2        1 UNL1     -0.0542
     5 C         9.483659   4.66692   -2.690396 C.2        1 UNL1     0.0115
     6 C         10.702003   4.091625   -3.463699 C.3        1 UNL1     -0.0348
     7 C         9.461848   6.101534   -3.410393 C.2        1 UNL1     0.2441
     8 O         10.186588   7.027077   -3.071797 O.2        1 UNL1     -0.2702
     9 N         8.745149   6.143111   -4.619014 N.am        1 UNL1     -0.2772
     10 C         7.419227   6.423997   -4.38162 C.2        1 UNL1     0.1049
     11 C         6.658894   5.398959   -4.041897 C.2        1 UNL1     0.0801
     12 C         5.914673   7.997711   -3.149924 C.ar        1 UNL1     0.0753
     13 C         5.249046   6.837878   -2.639691 C.ar        1 UNL1     0.0305
     14 C         5.517599   5.504572   -3.173756 C.2        1 UNL1     0.0924
     15 N         6.914882   4.080348   -4.089459 N.pl3        1 UNL1     -0.3170
     16 C         5.696198   3.384421   -3.77205 C.3        1 UNL1     0.1275
     17 N         4.930543   4.344277   -2.894455 N.2        1 UNL1     -0.2557
     18 C         4.895519   3.261999   -5.064964 C.3        1 UNL1     0.0016
     19 C         5.759275   2.571485   -6.108375 C.3        1 UNL1     0.0026
     20 N         6.143763   1.260433   -5.604053 N.3        1 UNL1     -0.3018
     21 C         6.866176   1.271618   -4.330333 C.3        1 UNL1     0.0026
     22 C         5.97839   1.965568   -3.295845 C.3        1 UNL1     0.0016
     23 C         6.711033   0.406308   -6.628416 C.3        1 UNL1     0.0012
     24 C         6.706248   -1.060543   -6.170071 C.3        1 UNL1     -0.0339
     25 C         7.927155   -1.822711   -6.710944 C.3        1 UNL1     -0.0615
     26 C         6.628576   -1.132478   -4.654957 C.3        1 UNL1     -0.0615
     27 C         5.566964   9.276541   -2.721192 C.ar        1 UNL1     0.1347
     28 C         4.546967   9.522676   -1.819486 C.ar        1 UNL1     0.0342
     29 C         3.938602   8.363035   -1.293855 C.ar        1 UNL1     0.1435
     30 C         4.300949   7.07406   -1.686883 C.ar        1 UNL1     0.0774
     31 O         2.85655   8.438162   -0.488544 O.3        1 UNL1     -0.4436
     32 C         2.262949   7.132803   -0.555994 C.3        1 UNL1     0.3143
     33 C         3.388227   6.2069   -0.971525 C.2        1 UNL1     0.2504
     34 C         3.953142   10.867635   -1.505548 C.3        1 UNL1     -0.0327
     35 O         1.890787   6.764653   0.777878 O.2        1 UNL1     -0.4528
     36 C         -1.132617   4.496724   0.426286 C.3        1 UNL1     0.0854
     37 C         -1.277715   3.147154   -0.376915 C.3        1 UNL1     0.0236
     38 C         -1.787268   1.896972   0.488617 C.3        1 UNL1     0.1131
     39 C         -1.069343   1.54157   1.852634 C.3        1 UNL1     0.0200
     40 C         0.594944   1.564503   1.962451 C.3        1 UNL1     0.0661
     41 C         1.671868   0.807039   0.892829 C.3        1 UNL1     0.0091
     42 C         3.359055   1.29234   0.360581 C.3        1 UNL1     0.0661
     43 C         6.926538   7.799713   -4.217249 C.2        1 UNL1     0.2131
     44 O         7.268382   8.675255   -4.991399 O.2        1 UNL1     -0.2851
     45 O         6.294862   10.348704   -3.233118 O.3        1 UNL1     -0.5056
     46 O         3.513957   5.024401   -0.744054 O.2        1 UNL1     -0.2836
     47 C         5.347049   1.961471   2.009205 C.3        1 UNL1     -0.0566
     48 O         3.936935   -0.057098   0.57079 O.3        1 UNL1     -0.3909
     49 C         0.916688   0.398888   -0.352406 C.3        1 UNL1     -0.0577
     50 O         1.05863   2.862206   2.276595 O.3        1 UNL1     -0.3910
     51 O         -1.296356   4.40281   1.823355 O.3        1 UNL1     -0.3753
     52 C         -0.175156   3.002925   -1.476237 C.3        1 UNL1     -0.0564
     53 O         -2.249167   0.737685   -0.345067 O.3        1 UNL1     -0.4608
     54 C         -1.44131   -0.066578   -1.105631 C.2        1 UNL1     0.3042
     55 O         -0.739606   0.26766   -2.059432 O.2        1 UNL1     -0.2512
     56 C         -1.406343   -1.494937   -0.641649 C.3        1 UNL1     0.0332
     57 C         -1.90355   2.230625   3.030547 C.3        1 UNL1     -0.0567
     58 C         1.215758   7.186692   -1.692662 C.3        1 UNL1     0.0210
     59 C         -2.511367   4.959375   2.323203 C.3        1 UNL1     0.0372
     60 C         0.138499   5.234562   0.191724 C.2        1 UNL1     -0.0208
     61 C         0.968162   5.823178   1.05424 C.2        1 UNL1     0.0882
     62 H         4.400902   3.174385   0.519922 H        1 UNL1     0.0365
     63 H         5.989312   4.142253   -0.322939 H        1 UNL1     0.0576
     64 H         8.228831   2.162331   -1.072098 H        1 UNL1     0.0615
     65 H         7.871096   5.234238   -1.511726 H        1 UNL1     0.0622
     66 H         -1.93167   5.140045   0.031698 H        1 UNL1     0.0645
     67 H         -2.142454   3.321741   -1.04047 H        1 UNL1     0.0362
     68 H         -2.785789   2.263754   0.771368 H        1 UNL1     0.0741
     69 H         -1.310377   0.520603   2.117092 H        1 UNL1     0.0359
     70 H         0.73233   0.987878   2.897164 H        1 UNL1     0.0600
     71 H         1.795111   -0.169114   1.401645 H        1 UNL1     0.0348
     72 H         3.165785   1.841268   1.293663 H        1 UNL1     0.0602
     73 H         0.280426   5.362542   -0.852655 H        1 UNL1     0.0628
     74 H         0.925919   5.694356   2.136302 H        1 UNL1     0.1022
     75 H         11.362876   3.509603   -2.777017 H        1 UNL1     0.0279
     76 H         10.482564   3.36871   -4.246201 H        1 UNL1     0.0279
     77 H         11.390323   4.873984   -3.815594 H        1 UNL1     0.0279
     78 H         8.788911   5.233673   -5.07408 H        1 UNL1     0.1553
     79 H         7.643467   3.674186   -4.647249 H        1 UNL1     0.1484
     80 H         3.978394   2.694779   -4.865187 H        1 UNL1     0.0317
     81 H         4.582206   4.247468   -5.425984 H        1 UNL1     0.0317
     82 H         6.644346   3.171605   -6.366092 H        1 UNL1     0.0428
     83 H         5.169761   2.496125   -7.02262 H        1 UNL1     0.0428
     84 H         7.072773   0.272417   -3.934448 H        1 UNL1     0.0428
     85 H         7.859713   1.730617   -4.427903 H        1 UNL1     0.0428
     86 H         6.477791   1.837747   -2.353375 H        1 UNL1     0.0317
     87 H         5.04483   1.40446   -3.16654 H        1 UNL1     0.0317
     88 H         6.088744   0.493186   -7.528696 H        1 UNL1     0.0429
     89 H         7.722436   0.73179   -6.903914 H        1 UNL1     0.0429
     90 H         5.797312   -1.549524   -6.540134 H        1 UNL1     0.0308
     91 H         8.847508   -1.246717   -6.575725 H        1 UNL1     0.0233
     92 H         8.031939   -2.788661   -6.211374 H        1 UNL1     0.0233
     93 H         7.842556   -2.040249   -7.782557 H        1 UNL1     0.0233
     94 H         6.962525   -2.115568   -4.305891 H        1 UNL1     0.0233
     95 H         7.282852   -0.376973   -4.210999 H        1 UNL1     0.0233
     96 H         5.607511   -0.968071   -4.299477 H        1 UNL1     0.0233
     97 H         2.88667   10.899393   -1.70769 H        1 UNL1     0.0280
     98 H         4.06627   11.132897   -0.446259 H        1 UNL1     0.0280
     99 H         4.444359   11.640304   -2.119374 H        1 UNL1     0.0280
     100 H         5.966889   10.692275   -4.045531 H        1 UNL1     0.2922
     101 H         4.81832   2.658678   2.658822 H        1 UNL1     0.0236
     102 H         6.421696   1.970378   2.188196 H        1 UNL1     0.0236
     103 H         5.015199   0.963414   2.340793 H        1 UNL1     0.0236
     104 H         4.088162   -0.453596   -0.309488 H        1 UNL1     0.2098
     105 H         0.685096   1.219738   -1.026485 H        1 UNL1     0.0234
     106 H         1.361914   -0.428914   -0.904172 H        1 UNL1     0.0234
     107 H         0.0   -0.0   0.0 H        1 UNL1     0.0234
     108 H         2.020025   2.876084   2.105438 H        1 UNL1     0.2098
     109 H         -0.222682   3.809298   -2.221364 H        1 UNL1     0.0234
     110 H         0.838089   2.943808   -1.06443 H        1 UNL1     0.0234
     111 H         -0.28751   2.068444   -2.041982 H        1 UNL1     0.0234
     112 H         -0.378389   -1.78327   -0.401812 H        1 UNL1     0.0342
     113 H         -2.06813   -1.666527   0.205958 H        1 UNL1     0.0342
     114 H         -1.750984   -2.132466   -1.467448 H        1 UNL1     0.0342
     115 H         -1.880995   1.631724   3.951414 H        1 UNL1     0.0234
     116 H         -1.564511   3.236819   3.28486 H        1 UNL1     0.0234
     117 H         -2.988312   2.276588   2.832759 H        1 UNL1     0.0234
     118 H         0.18251   7.13205   -1.307409 H        1 UNL1     0.0309
     119 H         1.315156   8.07343   -2.326711 H        1 UNL1     0.0309
     120 H         1.280516   6.324293   -2.365106 H        1 UNL1     0.0309
     121 H         -2.373585   6.037655   2.398607 H        1 UNL1     0.0524
     122 H         -3.363263   4.780094   1.646321 H        1 UNL1     0.0524
     123 H         -2.74251   4.541879   3.299095 H        1 UNL1     0.0524
@<TRIPOS>BOND
     1     1     2    1
     2     1    42    1
     3     2     3    2
     4     3     4    1
     5     4     5    2
     6     5     7    1
     7     6    75    1
     8     6    76    1
     9     6    77    1
    10     7     9   am
    11     9    10    1
    12    10    11    2
    13    10    43    1
    14    11    14    1
    15    11    15    1
    16    12    13   ar
    17    12    27   ar
    18    12    43    1
    19    13    14    1
    20    13    30   ar
    21    14    17    2
    22    15    16    1
    23    16    17    1
    24    16    18    1
    25    16    22    1
    26    18    19    1
    27    19    20    1
    28    20    21    1
    29    21    22    1
    30    23    24    1
    31    23    88    1
    32    23    89    1
    33    24    25    1
    34    24    26    1
    35    24    90    1
    36    25    91    1
    37    25    92    1
    38    25    93    1
    39    26    94    1
    40    26    95    1
    41    26    96    1
    42    27    28   ar
    43    28    29   ar
    44    29    30   ar
    45    29    31    1
    46    30    33    1
    47    31    32    1
    48    32    33    1
    49    32    35    1
    50    34    97    1
    51    34    98    1
    52    34    99    1
    53    35    61    1
    54    36    37    1
    55    36    60    1
    56    37    38    1
    57    38    39    1
    58    39    40    1
    59    40    41    1
    60    41    42    1
    61    45   100    1
    62    47   101    1
    63    47   102    1
    64    47   103    1
    65    48   104    1
    66    49   105    1
    67    49   106    1
    68    49   107    1
    69    50   108    1
    70    51    59    1
    71    52   109    1
    72    52   110    1
    73    52   111    1
    74    53    54    1
    75    54    55    2
    76    54    56    1
    77    56   112    1
    78    56   113    1
    79    56   114    1
    80    57   115    1
    81    57   116    1
    82    57   117    1
    83    58   118    1
    84    58   119    1
    85    58   120    1
    86    59   121    1
    87    59   122    1
    88    59   123    1
    89    60    61    2
    90     1    47    1
    91     1    62    1
    92     2    63    1
    93     3    64    1
    94     4    65    1
    95     5     6    1
    96     7     8    2
    97     9    78    1
    98    15    79    1
    99    18    80    1
   100    18    81    1
   101    19    82    1
   102    19    83    1
   103    20    23    1
   104    21    84    1
   105    21    85    1
   106    22    86    1
   107    22    87    1
   108    27    45    1
   109    28    34    1
   110    32    58    1
   111    33    46    2
   112    36    51    1
   113    36    66    1
   114    37    52    1
   115    37    67    1
   116    38    53    1
   117    38    68    1
   118    42    48    1
   119    42    72    1
   120    43    44    2
   121    60    73    1
   122    61    74    1
   123    39    69    1
   124    39    57    1
   125    40    70    1
   126    40    50    1
   127    41    71    1
   128    41    49    1
