@<TRIPOS>MOLECULE
*****
 123 128 0 0 0
SMALL
GASTEIGER

@<TRIPOS>ATOM
     1 C         5.16853   1.81603   0.009059 C.3        1 UNL1     0.0009
     2 C         6.72179   2.018376   1.000763 C.2        1 UNL1     -0.0787
     3 C         7.618433   2.85097   1.774626 C.2        1 UNL1     -0.0649
     4 C         8.998963   2.376584   2.63221 C.2        1 UNL1     -0.0542
     5 C         9.903689   2.730167   3.663486 C.2        1 UNL1     0.0115
     6 C         10.34169   3.880664   4.611027 C.3        1 UNL1     -0.0348
     7 C         10.830093   1.589178   4.309171 C.2        1 UNL1     0.2441
     8 O         12.011725   1.45111   4.024197 O.2        1 UNL1     -0.2702
     9 N         10.265714   0.927193   5.413437 N.am        1 UNL1     -0.2772
     10 C         9.514382   -0.147504   4.996486 C.2        1 UNL1     0.1049
     11 C         8.28041   0.120174   4.609339 C.2        1 UNL1     0.0801
     12 C         9.584221   -2.160469   3.513101 C.ar        1 UNL1     0.0753
     13 C         8.336573   -1.710325   2.975185 C.ar        1 UNL1     0.0305
     14 C         7.580992   -0.626296   3.598906 C.2        1 UNL1     0.0924
     15 N         7.555846   1.243604   4.748762 N.pl3        1 UNL1     -0.3170
     16 C         6.215268   0.959095   4.310402 C.3        1 UNL1     0.1275
     17 N         6.375622   -0.150304   3.299836 N.2        1 UNL1     -0.2557
     18 C         5.47216   0.348805   5.494901 C.3        1 UNL1     0.0016
     19 C         5.557771   1.309648   6.670077 C.3        1 UNL1     0.0026
     20 N         4.965391   2.581246   6.278729 N.3        1 UNL1     -0.3018
     21 C         5.574202   3.216716   5.108303 C.3        1 UNL1     0.0026
     22 C         5.473021   2.236002   3.938748 C.3        1 UNL1     0.0016
     23 C         4.725191   3.461741   7.40464 C.3        1 UNL1     0.0012
     24 C         3.579135   2.922636   8.275087 C.3        1 UNL1     -0.0339
     25 C         2.755307   4.065418   8.891052 C.3        1 UNL1     -0.0615
     26 C         2.707807   1.979882   7.463433 C.3        1 UNL1     -0.0615
     27 C         10.238584   -3.271422   2.986119 C.ar        1 UNL1     0.1347
     28 C         9.725617   -4.03336   1.951534 C.ar        1 UNL1     0.0342
     29 C         8.520472   -3.542643   1.405652 C.ar        1 UNL1     0.1435
     30 C         7.871923   -2.410108   1.899584 C.ar        1 UNL1     0.0774
     31 O         7.839069   -4.234387   0.466404 O.3        1 UNL1     -0.4436
     32 C         6.507822   -3.699473   0.516626 C.3        1 UNL1     0.3143
     33 C         6.659452   -2.315008   1.113684 C.2        1 UNL1     0.2504
     34 C         10.240344   -5.373062   1.503924 C.3        1 UNL1     -0.0327
     35 O         6.067688   -3.524664   -0.83577 O.2        1 UNL1     -0.4528
     36 C         2.299307   -3.975329   -0.770214 C.3        1 UNL1     0.0854
     37 C         1.216721   -3.192618   0.068172 C.3        1 UNL1     0.0236
     38 C         0.04175   -2.52832   -0.797793 C.3        1 UNL1     0.1131
     39 C         0.400781   -1.6194   -2.04167 C.3        1 UNL1     0.0200
     40 C         1.627224   -0.493431   -1.939351 C.3        1 UNL1     0.0661
     41 C         1.819377   0.657421   -0.708 C.3        1 UNL1     0.0091
     42 C         3.340762   1.386599   0.012479 C.3        1 UNL1     0.0661
     43 C         10.114198   -1.45887   4.708569 C.2        1 UNL1     0.2131
     44 O         10.915848   -1.954511   5.479564 O.2        1 UNL1     -0.2851
     45 O         11.470882   -3.61599   3.53762 O.3        1 UNL1     -0.5056
     46 O         5.951227   -1.345481   0.957839 O.2        1 UNL1     -0.2836
     47 C         5.340646   2.449276   -1.397837 C.3        1 UNL1     -0.0566
     48 O         2.843741   2.781833   -0.061069 O.3        1 UNL1     -0.3909
     49 C         0.915628   0.29078   0.447987 C.3        1 UNL1     -0.0577
     50 O         2.874442   -1.081254   -2.250216 O.3        1 UNL1     -0.3910
     51 O         2.202429   -3.850186   -2.171066 O.3        1 UNL1     -0.3753
     52 C         1.847306   -2.472286   1.304471 C.3        1 UNL1     -0.0564
     53 O         -1.141025   -2.102131   0.021801 O.3        1 UNL1     -0.4608
     54 C         -1.16205   -1.051065   0.900862 C.2        1 UNL1     0.3042
     55 O         -1.988474   -0.141319   0.957637 O.2        1 UNL1     -0.2512
     56 C         -0.059939   -1.09779   1.920607 C.3        1 UNL1     0.0332
     57 C         0.343836   -2.54294   -3.346279 C.3        1 UNL1     -0.0567
     58 C         5.717278   -4.585985   1.506913 C.3        1 UNL1     0.0210
     59 C         2.497173   -2.549594   -2.678465 C.3        1 UNL1     0.0372
     60 C         3.711744   -3.675635   -0.409152 C.2        1 UNL1     -0.0208
     61 C         4.769877   -3.435293   -1.184609 C.2        1 UNL1     0.0882
     62 H         5.39851   0.749065   -0.097741 H        1 UNL1     0.0365
     63 H         7.161149   1.024156   0.896069 H        1 UNL1     0.0576
     64 H         7.373372   3.888288   2.013426 H        1 UNL1     0.0615
     65 H         9.20003   1.366744   2.26441 H        1 UNL1     0.0622
     66 H         2.139372   -5.031205   -0.510226 H        1 UNL1     0.0645
     67 H         0.670336   -3.985812   0.607492 H        1 UNL1     0.0362
     68 H         -0.410883   -3.437625   -1.221833 H        1 UNL1     0.0741
     69 H         -0.459386   -1.011344   -2.288227 H        1 UNL1     0.0359
     70 H         1.387701   0.13015   -2.821868 H        1 UNL1     0.0600
     71 H         1.268605   1.509619   -1.152259 H        1 UNL1     0.0348
     72 H         3.635992   0.970046   -0.961502 H        1 UNL1     0.0602
     73 H         3.83802   -3.797799   0.637929 H        1 UNL1     0.0628
     74 H         4.717455   -3.240335   -2.256281 H        1 UNL1     0.1022
     75 H         10.461837   4.833524   4.041241 H        1 UNL1     0.0279
     76 H         9.637554   4.161357   5.391073 H        1 UNL1     0.0279
     77 H         11.355929   3.738495   5.012035 H        1 UNL1     0.0279
     78 H         9.64389   1.561065   5.911049 H        1 UNL1     0.1553
     79 H         7.769172   1.965153   5.412684 H        1 UNL1     0.1484
     80 H         4.430981   0.161508   5.20571 H        1 UNL1     0.0317
     81 H         5.900962   -0.621329   5.76807 H        1 UNL1     0.0317
     82 H         6.594817   1.444378   7.0111 H        1 UNL1     0.0428
     83 H         5.02313   0.854142   7.504177 H        1 UNL1     0.0428
     84 H         5.060912   4.128581   4.787606 H        1 UNL1     0.0428
     85 H         6.602536   3.546586   5.310865 H        1 UNL1     0.0428
     86 H         5.80449   2.78098   3.074389 H        1 UNL1     0.0317
     87 H         4.41981   2.02464   3.717011 H        1 UNL1     0.0317
     88 H         5.63898   3.496355   8.012164 H        1 UNL1     0.0429
     89 H         4.521022   4.487658   7.0721 H        1 UNL1     0.0429
     90 H         3.999051   2.317685   9.08744 H        1 UNL1     0.0308
     91 H         2.516575   4.830114   8.145834 H        1 UNL1     0.0233
     92 H         1.827302   3.683398   9.322882 H        1 UNL1     0.0233
     93 H         3.286704   4.570848   9.706522 H        1 UNL1     0.0233
     94 H         1.713607   1.900386   7.916294 H        1 UNL1     0.0233
     95 H         2.585596   2.365604   6.447438 H        1 UNL1     0.0233
     96 H         3.144594   0.978678   7.410739 H        1 UNL1     0.0233
     97 H         11.156503   -5.649744   2.017081 H        1 UNL1     0.0280
     98 H         9.525431   -6.180612   1.708907 H        1 UNL1     0.0280
     99 H         10.445201   -5.346709   0.421134 H        1 UNL1     0.0280
     100 H         12.077304   -2.900918   3.61854 H        1 UNL1     0.2922
     101 H         5.477705   1.663515   -2.140434 H        1 UNL1     0.0236
     102 H         6.13518   3.193614   -1.43859 H        1 UNL1     0.0236
     103 H         4.43468   2.987188   -1.723522 H        1 UNL1     0.0236
     104 H         2.626181   3.065765   0.848338 H        1 UNL1     0.2098
     105 H         1.271124   -0.542189   1.049316 H        1 UNL1     0.0234
     106 H         0.634237   1.126317   1.088787 H        1 UNL1     0.0234
     107 H         -0.0   0.0   0.0 H        1 UNL1     0.0234
     108 H         3.568879   -0.459527   -1.958701 H        1 UNL1     0.2098
     109 H         2.5683   -1.696603   1.010881 H        1 UNL1     0.0234
     110 H         1.099681   -2.041198   1.97898 H        1 UNL1     0.0234
     111 H         2.406245   -3.17264   1.939324 H        1 UNL1     0.0234
     112 H         -0.193268   -0.292924   2.649827 H        1 UNL1     0.0342
     113 H         0.000253   -2.066452   2.414483 H        1 UNL1     0.0342
     114 H         0.894115   -0.92836   1.402689 H        1 UNL1     0.0342
     115 H         0.005075   -1.982808   -4.228708 H        1 UNL1     0.0234
     116 H         1.296728   -3.011327   -3.600563 H        1 UNL1     0.0234
     117 H         -0.42144   -3.336164   -3.290675 H        1 UNL1     0.0234
     118 H         6.384489   -5.193205   2.143404 H        1 UNL1     0.0309
     119 H         5.035695   -4.014725   2.14512 H        1 UNL1     0.0309
     120 H         5.100651   -5.336026   0.999651 H        1 UNL1     0.0309
     121 H         3.575281   -2.406157   -2.611648 H        1 UNL1     0.0524
     122 H         2.212689   -2.439573   -3.738183 H        1 UNL1     0.0524
     123 H         1.981415   -1.792565   -2.094518 H        1 UNL1     0.0524
@<TRIPOS>BOND
     1     1     2    1
     2     1    42    1
     3     2     3    2
     4     3     4    1
     5     4     5    2
     6     5     7    1
     7     6    75    1
     8     6    76    1
     9     6    77    1
    10     7     9   am
    11     9    10    1
    12    10    11    2
    13    10    43    1
    14    11    14    1
    15    11    15    1
    16    12    13   ar
    17    12    27   ar
    18    12    43    1
    19    13    14    1
    20    13    30   ar
    21    14    17    2
    22    15    16    1
    23    16    17    1
    24    16    18    1
    25    16    22    1
    26    18    19    1
    27    19    20    1
    28    20    21    1
    29    21    22    1
    30    23    24    1
    31    23    88    1
    32    23    89    1
    33    24    25    1
    34    24    26    1
    35    24    90    1
    36    25    91    1
    37    25    92    1
    38    25    93    1
    39    26    94    1
    40    26    95    1
    41    26    96    1
    42    27    28   ar
    43    28    29   ar
    44    29    30   ar
    45    29    31    1
    46    30    33    1
    47    31    32    1
    48    32    33    1
    49    32    35    1
    50    34    97    1
    51    34    98    1
    52    34    99    1
    53    35    61    1
    54    36    37    1
    55    36    60    1
    56    37    38    1
    57    38    39    1
    58    39    40    1
    59    40    41    1
    60    41    42    1
    61    45   100    1
    62    47   101    1
    63    47   102    1
    64    47   103    1
    65    48   104    1
    66    49   105    1
    67    49   106    1
    68    49   107    1
    69    50   108    1
    70    51    59    1
    71    52   109    1
    72    52   110    1
    73    52   111    1
    74    53    54    1
    75    54    55    2
    76    54    56    1
    77    56   112    1
    78    56   113    1
    79    56   114    1
    80    57   115    1
    81    57   116    1
    82    57   117    1
    83    58   118    1
    84    58   119    1
    85    58   120    1
    86    59   121    1
    87    59   122    1
    88    59   123    1
    89    60    61    2
    90     1    47    1
    91     1    62    1
    92     2    63    1
    93     3    64    1
    94     4    65    1
    95     5     6    1
    96     7     8    2
    97     9    78    1
    98    15    79    1
    99    18    80    1
   100    18    81    1
   101    19    82    1
   102    19    83    1
   103    20    23    1
   104    21    84    1
   105    21    85    1
   106    22    86    1
   107    22    87    1
   108    27    45    1
   109    28    34    1
   110    32    58    1
   111    33    46    2
   112    36    51    1
   113    36    66    1
   114    37    52    1
   115    37    67    1
   116    38    53    1
   117    38    68    1
   118    42    48    1
   119    42    72    1
   120    43    44    2
   121    60    73    1
   122    61    74    1
   123    39    69    1
   124    39    57    1
   125    40    70    1
   126    40    50    1
   127    41    71    1
   128    41    49    1
