@<TRIPOS>MOLECULE
*****
 123 128 0 0 0
SMALL
GASTEIGER

@<TRIPOS>ATOM
     1 C         3.775881   -1.746319   -2.844538 C.3        1 UNL1     0.0009
     2 C         4.130808   -1.91857   -4.656 C.2        1 UNL1     -0.0787
     3 C         4.379352   -2.751821   -5.813568 C.2        1 UNL1     -0.0649
     4 C         4.540587   -2.268694   -7.428173 C.2        1 UNL1     -0.0542
     5 C         4.48535   -2.694046   -8.778396 C.2        1 UNL1     0.0115
     6 C         4.395088   -3.941134   -9.700322 C.3        1 UNL1     -0.0348
     7 C         4.328146   -1.591396   -9.934441 C.2        1 UNL1     0.2441
     8 O         5.263334   -1.217052   -10.628571 O.2        1 UNL1     -0.2702
     9 N         3.000188   -1.276379   -10.271251 N.am        1 UNL1     -0.2772
     10 C         2.528071   -0.264291   -9.467444 C.2        1 UNL1     0.1049
     11 C         2.072338   -0.626968   -8.282119 C.2        1 UNL1     0.0801
     12 C         3.104989   2.007375   -8.593353 C.ar        1 UNL1     0.0753
     13 C         2.795696   1.499054   -7.291602 C.ar        1 UNL1     0.0305
     14 C         2.143312   0.204135   -7.110963 C.2        1 UNL1     0.0924
     15 N         1.795967   -1.85094   -7.800416 N.pl3        1 UNL1     -0.3170
     16 C         1.162962   -1.686159   -6.518852 C.3        1 UNL1     0.1275
     17 N         1.697849   -0.374091   -5.999142 N.2        1 UNL1     -0.2557
     18 C         -0.324877   -1.465476   -6.774464 C.3        1 UNL1     0.0016
     19 C         -0.856228   -2.632239   -7.591728 C.3        1 UNL1     0.0026
     20 N         -0.629207   -3.864786   -6.849894 N.3        1 UNL1     -0.3018
     21 C         0.767894   -4.133225   -6.502882 C.3        1 UNL1     0.0026
     22 C         1.279915   -2.950874   -5.678396 C.3        1 UNL1     0.0016
     23 C         -1.358198   -4.993022   -7.394229 C.3        1 UNL1     0.0012
     24 C         -2.865228   -4.834737   -7.138175 C.3        1 UNL1     -0.0339
     25 C         -3.268528   -3.353512   -7.05227 C.3        1 UNL1     -0.0615
     26 C         -3.655131   -5.567999   -8.208297 C.3        1 UNL1     -0.0615
     27 C         3.615518   3.292041   -8.763974 C.ar        1 UNL1     0.1347
     28 C         3.820859   4.171637   -7.716026 C.ar        1 UNL1     0.0342
     29 C         3.555494   3.632361   -6.43934 C.ar        1 UNL1     0.1435
     30 C         3.077973   2.334874   -6.250334 C.ar        1 UNL1     0.0774
     31 O         3.60171   4.398093   -5.327349 O.3        1 UNL1     -0.4436
     32 C         2.840639   3.668696   -4.352863 C.3        1 UNL1     0.3143
     33 C         2.875551   2.227767   -4.820537 C.2        1 UNL1     0.2504
     34 C         4.12413   5.638628   -7.842762 C.3        1 UNL1     -0.0327
     35 O         3.565246   3.72416   -3.117905 O.2        1 UNL1     -0.4528
     36 C         0.951271   3.571294   -0.369842 C.3        1 UNL1     0.0854
     37 C         -0.145674   2.47107   -0.09829 C.3        1 UNL1     0.0236
     38 C         -0.117622   1.837835   1.374792 C.3        1 UNL1     0.1131
     39 C         1.241112   1.283414   1.965324 C.3        1 UNL1     0.0200
     40 C         2.259932   0.361889   1.019155 C.3        1 UNL1     0.0661
     41 C         1.807478   -0.984039   0.091053 C.3        1 UNL1     0.0091
     42 C         2.473092   -1.610966   -1.499332 C.3        1 UNL1     0.0661
     43 C         2.780123   1.153945   -9.763131 C.2        1 UNL1     0.2131
     44 O         2.621334   1.588116   -10.889638 O.2        1 UNL1     -0.2851
     45 O         3.932775   3.693259   -10.060049 O.3        1 UNL1     -0.5056
     46 O         2.780189   1.218291   -4.158934 O.2        1 UNL1     -0.2836
     47 C         5.05729   -2.028175   -2.014762 C.3        1 UNL1     -0.0566
     48 O         2.567704   -3.016664   -1.036537 O.3        1 UNL1     -0.3909
     49 C         0.299344   -1.016699   -0.018309 C.3        1 UNL1     -0.0577
     50 O         3.138506   1.185634   0.279374 O.3        1 UNL1     -0.3910
     51 O         1.92055   3.737334   0.640287 O.3        1 UNL1     -0.3753
     52 C         -0.42938   1.606094   -1.369619 C.3        1 UNL1     -0.0564
     53 O         -1.359588   1.070322   1.722313 O.3        1 UNL1     -0.4608
     54 C         -1.400682   -0.084143   2.459505 C.2        1 UNL1     0.3042
     55 O         -1.985844   -0.268877   3.525947 O.2        1 UNL1     -0.2512
     56 C         -0.678793   -1.234133   1.816767 C.3        1 UNL1     0.0332
     57 C         1.893207   2.446413   2.848716 C.3        1 UNL1     -0.0567
     58 C         1.388243   4.190412   -4.452303 C.3        1 UNL1     0.0210
     59 C         1.794354   4.938161   1.400519 C.3        1 UNL1     0.0372
     60 C         1.690105   3.419437   -1.652894 C.2        1 UNL1     -0.0208
     61 C         2.994021   3.515524   -1.916173 C.2        1 UNL1     0.0882
     62 H         3.7223   -0.659103   -2.977967 H        1 UNL1     0.0365
     63 H         4.230851   -0.870116   -4.944455 H        1 UNL1     0.0576
     64 H         4.32119   -3.841142   -5.757855 H        1 UNL1     0.0615
     65 H         4.669387   -1.184809   -7.364252 H        1 UNL1     0.0622
     66 H         0.385469   4.509531   -0.457169 H        1 UNL1     0.0645
     67 H         -1.093196   3.036986   -0.075905 H        1 UNL1     0.0362
     68 H         -0.347253   2.737362   1.966096 H        1 UNL1     0.0741
     69 H         1.017111   0.619026   2.789229 H        1 UNL1     0.0359
     70 H         2.897129   -0.086149   1.805477 H        1 UNL1     0.0600
     71 H         1.989524   -1.794299   0.824057 H        1 UNL1     0.0348
     72 H         3.250876   -0.95459   -1.082753 H        1 UNL1     0.0602
     73 H         0.993124   3.331138   -2.448927 H        1 UNL1     0.0628
     74 H         3.775601   3.550136   -1.156455 H        1 UNL1     0.1022
     75 H         4.271254   -4.869772   -9.092596 H        1 UNL1     0.0279
     76 H         3.541846   -3.986129   -10.373393 H        1 UNL1     0.0279
     77 H         5.33814   -4.150357   -10.22623 H        1 UNL1     0.0279
     78 H         2.406897   -2.089564   -10.12021 H        1 UNL1     0.1553
     79 H         1.649767   -2.657399   -8.379365 H        1 UNL1     0.1484
     80 H         -0.844276   -1.381012   -5.81225 H        1 UNL1     0.0317
     81 H         -0.494994   -0.52319   -7.306261 H        1 UNL1     0.0317
     82 H         -0.390256   -2.677781   -8.587071 H        1 UNL1     0.0428
     83 H         -1.918057   -2.453726   -7.764073 H        1 UNL1     0.0428
     84 H         0.901758   -5.021932   -5.878309 H        1 UNL1     0.0428
     85 H         1.378069   -4.33853   -7.393305 H        1 UNL1     0.0428
     86 H         2.254698   -3.2401   -5.331795 H        1 UNL1     0.0317
     87 H         0.69827   -2.859544   -4.752953 H        1 UNL1     0.0317
     88 H         -1.188685   -5.018104   -8.478632 H        1 UNL1     0.0429
     89 H         -0.985122   -5.942156   -6.988356 H        1 UNL1     0.0429
     90 H         -3.12158   -5.321986   -6.189975 H        1 UNL1     0.0308
     91 H         -2.810387   -2.866135   -6.186434 H        1 UNL1     0.0233
     92 H         -2.976524   -2.820376   -7.960074 H        1 UNL1     0.0233
     93 H         -4.352878   -3.22088   -6.955161 H        1 UNL1     0.0233
     94 H         -4.652633   -5.822218   -7.833867 H        1 UNL1     0.0233
     95 H         -3.777719   -4.928062   -9.086599 H        1 UNL1     0.0233
     96 H         -3.15414   -6.491564   -8.511619 H        1 UNL1     0.0233
     97 H         3.381414   6.252941   -7.342539 H        1 UNL1     0.0280
     98 H         5.087998   5.902715   -7.388368 H        1 UNL1     0.0280
     99 H         4.1449   5.920481   -8.90823 H        1 UNL1     0.0280
     100 H         3.219891   4.083254   -10.534731 H        1 UNL1     0.2922
     101 H         4.954725   -1.593262   -1.020786 H        1 UNL1     0.0236
     102 H         5.97022   -1.7018   -2.511776 H        1 UNL1     0.0236
     103 H         5.205312   -3.10607   -1.834694 H        1 UNL1     0.0236
     104 H         2.861996   -3.001266   -0.104805 H        1 UNL1     0.2098
     105 H         -0.074737   -1.457143   -0.939115 H        1 UNL1     0.0234
     106 H         -0.210331   -1.450159   0.842082 H        1 UNL1     0.0234
     107 H         -0.0   0.0   0.0 H        1 UNL1     0.0234
     108 H         3.544586   0.628835   -0.412611 H        1 UNL1     0.2098
     109 H         -0.80241   2.209793   -2.20873 H        1 UNL1     0.0234
     110 H         0.438279   1.022351   -1.695432 H        1 UNL1     0.0234
     111 H         -1.203017   0.850043   -1.180359 H        1 UNL1     0.0234
     112 H         -0.079544   -1.762153   2.564725 H        1 UNL1     0.0342
     113 H         -1.361716   -1.915363   1.31141 H        1 UNL1     0.0342
     114 H         0.007396   -0.828851   1.060424 H        1 UNL1     0.0342
     115 H         2.448993   2.044471   3.707047 H        1 UNL1     0.0234
     116 H         2.571594   3.097804   2.294162 H        1 UNL1     0.0234
     117 H         1.148531   3.083331   3.35639 H        1 UNL1     0.0234
     118 H         1.096771   4.777295   -3.563698 H        1 UNL1     0.0309
     119 H         1.206976   4.787912   -5.351379 H        1 UNL1     0.0309
     120 H         0.651077   3.380307   -4.472869 H        1 UNL1     0.0309
     121 H         2.781606   5.188406   1.787904 H        1 UNL1     0.0524
     122 H         1.453456   5.788253   0.786377 H        1 UNL1     0.0524
     123 H         1.096034   4.792662   2.219832 H        1 UNL1     0.0524
@<TRIPOS>BOND
     1     1     2    1
     2     1    42    1
     3     2     3    2
     4     3     4    1
     5     4     5    2
     6     5     7    1
     7     6    75    1
     8     6    76    1
     9     6    77    1
    10     7     9   am
    11     9    10    1
    12    10    11    2
    13    10    43    1
    14    11    14    1
    15    11    15    1
    16    12    13   ar
    17    12    27   ar
    18    12    43    1
    19    13    14    1
    20    13    30   ar
    21    14    17    2
    22    15    16    1
    23    16    17    1
    24    16    18    1
    25    16    22    1
    26    18    19    1
    27    19    20    1
    28    20    21    1
    29    21    22    1
    30    23    24    1
    31    23    88    1
    32    23    89    1
    33    24    25    1
    34    24    26    1
    35    24    90    1
    36    25    91    1
    37    25    92    1
    38    25    93    1
    39    26    94    1
    40    26    95    1
    41    26    96    1
    42    27    28   ar
    43    28    29   ar
    44    29    30   ar
    45    29    31    1
    46    30    33    1
    47    31    32    1
    48    32    33    1
    49    32    35    1
    50    34    97    1
    51    34    98    1
    52    34    99    1
    53    35    61    1
    54    36    37    1
    55    36    60    1
    56    37    38    1
    57    38    39    1
    58    39    40    1
    59    40    41    1
    60    41    42    1
    61    45   100    1
    62    47   101    1
    63    47   102    1
    64    47   103    1
    65    48   104    1
    66    49   105    1
    67    49   106    1
    68    49   107    1
    69    50   108    1
    70    51    59    1
    71    52   109    1
    72    52   110    1
    73    52   111    1
    74    53    54    1
    75    54    55    2
    76    54    56    1
    77    56   112    1
    78    56   113    1
    79    56   114    1
    80    57   115    1
    81    57   116    1
    82    57   117    1
    83    58   118    1
    84    58   119    1
    85    58   120    1
    86    59   121    1
    87    59   122    1
    88    59   123    1
    89    60    61    2
    90     1    47    1
    91     1    62    1
    92     2    63    1
    93     3    64    1
    94     4    65    1
    95     5     6    1
    96     7     8    2
    97     9    78    1
    98    15    79    1
    99    18    80    1
   100    18    81    1
   101    19    82    1
   102    19    83    1
   103    20    23    1
   104    21    84    1
   105    21    85    1
   106    22    86    1
   107    22    87    1
   108    27    45    1
   109    28    34    1
   110    32    58    1
   111    33    46    2
   112    36    51    1
   113    36    66    1
   114    37    52    1
   115    37    67    1
   116    38    53    1
   117    38    68    1
   118    42    48    1
   119    42    72    1
   120    43    44    2
   121    60    73    1
   122    61    74    1
   123    39    69    1
   124    39    57    1
   125    40    70    1
   126    40    50    1
   127    41    71    1
   128    41    49    1
